s_22____6107996____17513450
     RDKit          3D

 24 25  0  0  0  0  0  0  0  0999 V2000
    0.4000    1.0000   -0.0392 O   0  0  0  0  0  0  0  0  0  0  0  0
    1.0000    1.0000    1.0000 C   0  0  0  0  0  0  0  0  0  0  0  0
    0.3150    1.0000    2.1865 N   0  0  0  0  0  0  0  0  0  0  0  0
   -1.1552    1.0000    2.1865 C   0  0  0  0  0  0  0  0  0  0  0  0
   -1.6373    2.2488    2.9075 C   0  0  0  0  0  0  0  0  0  0  0  0
   -3.1566    2.3061    3.0278 C   0  0  0  0  0  0  0  0  0  0  0  0
   -3.7109    1.3552    4.0857 C   0  0  0  0  0  0  0  0  0  0  0  0
   -4.0904   -0.0273    3.5674 C   0  0  0  0  0  0  0  0  0  0  0  0
   -3.0966   -0.6057    2.5666 C   0  0  0  0  0  0  0  0  0  0  0  0
   -1.6395   -0.2711    2.8679 C   0  0  0  0  0  0  0  0  0  0  0  0
   -1.1727    3.4664    2.1243 C   0  0  0  0  0  0  0  0  0  0  0  0
    2.5200    1.0000    1.0000 C   0  0  0  0  0  0  0  0  0  0  0  0
    3.0100    1.0000   -0.3859 N   0  0  0  0  0  0  0  0  0  0  0  0
    3.7976    2.0275   -0.8340 C   0  0  0  0  0  0  0  0  0  0  0  0
    4.0875    2.9275   -0.0951 O   0  0  0  0  0  0  0  0  0  0  0  0
    4.3043    2.0275   -2.2671 C   0  0  0  0  0  0  0  0  0  0  0  0
    3.0267   -0.2411    1.7165 C   0  0  0  0  0  0  0  0  0  0  0  0
    4.5467   -0.2411    1.7165 C   0  0  0  0  0  0  0  0  0  0  0  0
    5.2311    0.3644    2.7653 C   0  0  0  0  0  0  0  0  0  0  0  0
    6.6219    0.3662    2.7699 C   0  0  0  0  0  0  0  0  0  0  0  0
    7.3116   -0.2391    1.7241 C   0  0  0  0  0  0  0  0  0  0  0  0
    8.6614   -0.2393    1.7244 O   0  0  0  0  0  0  0  0  0  0  0  0
    6.6320   -0.8457    0.6727 C   0  0  0  0  0  0  0  0  0  0  0  0
    5.2412   -0.8449    0.6734 C   0  0  0  0  0  0  0  0  0  0  0  0
  1  2  2  0
  2  3  1  0
  3  4  1  0
  4  5  1  0
  5  6  1  0
  6  7  1  0
  7  8  1  0
  8  9  1  0
  9 10  1  0
 10  4  1  0
  5 11  1  0
  2 12  1  0
 12 13  1  0
 13 14  1  0
 14 15  2  0
 14 16  1  0
 12 17  1  0
 17 18  1  0
 18 19  2  0
 19 20  1  0
 20 21  2  0
 21 22  1  0
 21 23  1  0
 23 24  2  0
 24 18  1  0
M  END
$$$$
s_22____307590____17513450
     RDKit          3D

 26 27  0  0  0  0  0  0  0  0999 V2000
    0.4000    1.0000   -0.0392 O   0  0  0  0  0  0  0  0  0  0  0  0
    1.0000    1.0000    1.0000 C   0  0  0  0  0  0  0  0  0  0  0  0
    0.3150    1.0000    2.1865 N   0  0  0  0  0  0  0  0  0  0  0  0
    1.0472    1.1112    3.4596 C   0  0  0  0  0  0  0  0  0  0  0  0
    1.4479   -0.2717    3.9498 C   0  0  0  0  0  0  0  0  0  0  0  0
    2.1838   -0.1509    5.2748 C   0  0  0  0  0  0  0  0  0  0  0  0
    1.3519    0.5214    6.2842 N   0  0  0  0  0  0  0  0  0  0  0  0
    2.0551    0.6101    7.5746 C   0  0  0  0  0  0  0  0  0  0  0  0
    1.6717    1.9047    8.2727 C   0  0  0  0  0  0  0  0  0  0  0  0
    1.6635   -0.5713    8.4472 C   0  0  0  0  0  0  0  0  0  0  0  0
    0.9241    1.8548    5.8346 C   0  0  0  0  0  0  0  0  0  0  0  0
    0.1706    1.7622    4.5173 C   0  0  0  0  0  0  0  0  0  0  0  0
   -1.1508    0.8890    2.1889 C   0  0  0  0  0  0  0  0  0  0  0  0
    2.5200    1.0000    1.0000 C   0  0  0  0  0  0  0  0  0  0  0  0
    3.0100    2.0617    0.1091 N   0  0  0  0  0  0  0  0  0  0  0  0
    3.7976    3.0654    0.6082 C   0  0  0  0  0  0  0  0  0  0  0  0
    4.0875    3.0779    1.7726 O   0  0  0  0  0  0  0  0  0  0  0  0
    4.3043    4.1632   -0.3129 C   0  0  0  0  0  0  0  0  0  0  0  0
    3.0267   -0.3466    0.5099 C   0  0  0  0  0  0  0  0  0  0  0  0
    4.5007   -0.4888    0.8528 C   0  0  0  0  0  0  0  0  0  0  0  0
    4.8688   -1.0510    2.0707 C   0  0  0  0  0  0  0  0  0  0  0  0
    6.2163   -1.1838    2.3885 C   0  0  0  0  0  0  0  0  0  0  0  0
    7.1800   -0.7523    1.4825 C   0  0  0  0  0  0  0  0  0  0  0  0
    8.4889   -0.8790    1.7870 O   0  0  0  0  0  0  0  0  0  0  0  0
    6.8172   -0.1890    0.2633 C   0  0  0  0  0  0  0  0  0  0  0  0
    5.4683   -0.0590   -0.0495 C   0  0  0  0  0  0  0  0  0  0  0  0
  1  2  2  0
  2  3  1  0
  3  4  1  0
  4  5  1  0
  5  6  1  0
  6  7  1  0
  7  8  1  0
  8  9  1  0
  8 10  1  0
  7 11  1  0
 11 12  1  0
 12  4  1  0
  3 13  1  0
  2 14  1  0
 14 15  1  0
 15 16  1  0
 16 17  2  0
 16 18  1  0
 14 19  1  0
 19 20  1  0
 20 21  2  0
 21 22  1  0
 22 23  2  0
 23 24  1  0
 23 25  1  0
 25 26  2  0
 26 20  1  0
M  CHG  1   7   1
M  END
$$$$
s_22____15101146____17513450
     RDKit          3D

 25 27  0  0  0  0  0  0  0  0999 V2000
   -0.9588    2.2240    0.5109 O   0  0  0  0  0  0  0  0  0  0  0  0
    0.1224    1.8776    0.1224 C   0  0  0  0  0  0  0  0  0  0  0  0
    0.5659    2.2731   -1.1120 N   0  0  0  0  0  0  0  0  0  0  0  0
   -0.2828    3.1218   -1.9607 C   0  0  0  0  0  0  0  0  0  0  0  0
   -0.0224    4.5879   -1.7003 C   0  0  0  0  0  0  0  0  0  0  0  0
   -0.5679    5.2849   -2.9324 C   0  0  0  0  0  0  0  0  0  0  0  0
   -0.0692    4.3707   -4.0408 C   0  0  0  0  0  0  0  0  0  0  0  0
    0.1559    3.0064   -3.4197 C   0  0  0  0  0  0  0  0  0  0  0  0
   -2.0700    5.4920   -2.9668 C   0  0  0  0  0  0  0  0  0  0  0  0
   -2.2946    6.5937   -3.9900 C   0  0  0  0  0  0  0  0  0  0  0  0
   -0.9902    7.3591   -4.0830 C   0  0  0  0  0  0  0  0  0  0  0  0
   -0.0936    6.7226   -3.0315 C   0  0  0  0  0  0  0  0  0  0  0  0
    1.0000    1.0000    1.0000 C   0  0  0  0  0  0  0  0  0  0  0  0
    1.8487    0.1513    0.1513 N   0  0  0  0  0  0  0  0  0  0  0  0
    2.2442   -1.0831    0.5948 C   0  0  0  0  0  0  0  0  0  0  0  0
    1.8978   -1.4716    1.6760 O   0  0  0  0  0  0  0  0  0  0  0  0
    3.1218   -1.9607   -0.2828 C   0  0  0  0  0  0  0  0  0  0  0  0
    1.8776    1.8776    1.8776 C   0  0  0  0  0  0  0  0  0  0  0  0
    1.0000    2.7552    2.7552 C   0  0  0  0  0  0  0  0  0  0  0  0
    0.6049    2.2940    4.0066 C   0  0  0  0  0  0  0  0  0  0  0  0
   -0.1975    3.0939    4.8134 C   0  0  0  0  0  0  0  0  0  0  0  0
   -0.5947    4.3470    4.3576 C   0  0  0  0  0  0  0  0  0  0  0  0
   -1.4142    5.1669    5.1777 O   0  0  0  0  0  0  0  0  0  0  0  0
   -0.2026    4.8128    3.1068 C   0  0  0  0  0  0  0  0  0  0  0  0
    0.6001    4.0090    2.3044 C   0  0  0  0  0  0  0  0  0  0  0  0
  1  2  2  0
  2  3  1  0
  3  4  1  0
  4  5  1  0
  5  6  1  0
  6  7  1  0
  7  8  1  0
  8  4  1  0
  6  9  1  0
  9 10  1  0
 10 11  1  0
 11 12  1  0
 12  6  1  0
  2 13  1  0
 13 14  1  0
 14 15  1  0
 15 16  2  0
 15 17  1  0
 13 18  1  0
 18 19  1  0
 19 20  2  0
 20 21  1  0
 21 22  2  0
 22 23  1  0
 22 24  1  0
 24 25  2  0
 25 19  1  0
M  END
$$$$
s_22____13441554____17513450
     RDKit          3D

 23 24  0  0  0  0  0  0  0  0999 V2000
    0.4000   -0.0392    1.0000 O   0  0  0  0  0  0  0  0  0  0  0  0
    1.0000    1.0000    1.0000 C   0  0  0  0  0  0  0  0  0  0  0  0
    2.3700    1.0000    1.0000 N   0  0  0  0  0  0  0  0  0  0  0  0
    3.1050   -0.2731    1.0000 C   0  0  0  0  0  0  0  0  0  0  0  0
    4.5994    0.0047    1.0000 C   0  0  0  0  0  0  0  0  0  0  0  0
    5.3594   -1.3117    1.0000 C   0  0  0  0  0  0  0  0  0  0  0  0
    5.0164   -2.0563    2.1594 O   0  0  0  0  0  0  0  0  0  0  0  0
    6.8544   -1.0338    1.0000 C   0  0  0  0  0  0  0  0  0  0  0  0
    7.2548   -0.2467    2.2136 C   0  0  0  0  0  0  0  0  0  0  0  0
    7.1657    0.4299    0.8758 C   0  0  0  0  0  0  0  0  0  0  0  0
    0.2400    2.3164    1.0000 C   0  0  0  0  0  0  0  0  0  0  0  0
   -1.2052    2.0477    1.0000 N   0  0  0  0  0  0  0  0  0  0  0  0
   -1.9871    2.5058    2.0275 C   0  0  0  0  0  0  0  0  0  0  0  0
   -1.4922    3.1263    2.9275 O   0  0  0  0  0  0  0  0  0  0  0  0
   -3.4815    2.2281    2.0275 C   0  0  0  0  0  0  0  0  0  0  0  0
    0.6072    3.1134   -0.2411 C   0  0  0  0  0  0  0  0  0  0  0  0
   -0.1528    4.4298   -0.2411 C   0  0  0  0  0  0  0  0  0  0  0  0
    0.4132    5.5469    0.3644 C   0  0  0  0  0  0  0  0  0  0  0  0
   -0.2782    6.7537    0.3662 C   0  0  0  0  0  0  0  0  0  0  0  0
   -1.5287    6.8280   -0.2391 C   0  0  0  0  0  0  0  0  0  0  0  0
   -2.2034    7.9972   -0.2393 O   0  0  0  0  0  0  0  0  0  0  0  0
   -2.0995    5.7138   -0.8457 C   0  0  0  0  0  0  0  0  0  0  0  0
   -1.4035    4.5097   -0.8449 C   0  0  0  0  0  0  0  0  0  0  0  0
  1  2  2  0
  2  3  1  0
  3  4  1  0
  4  5  1  0
  5  6  1  0
  6  7  1  0
  6  8  1  0
  8  9  1  0
  9 10  1  0
 10  8  1  0
  2 11  1  0
 11 12  1  0
 12 13  1  0
 13 14  2  0
 13 15  1  0
 11 16  1  0
 16 17  1  0
 17 18  2  0
 18 19  1  0
 19 20  2  0
 20 21  1  0
 20 22  1  0
 22 23  2  0
 23 17  1  0
M  END
$$$$
s_22____10431726____17513450
     RDKit          3D

 24 26  0  0  0  0  0  0  0  0999 V2000
    0.5600    2.3347   -0.8972 O   0  0  0  0  0  0  0  0  0  0  0  0
    0.1224    1.8776    0.1224 C   0  0  0  0  0  0  0  0  0  0  0  0
   -1.1939    2.1520    0.5030 N   0  0  0  0  0  0  0  0  0  0  0  0
   -1.9367    3.1777   -0.2475 C   0  0  0  0  0  0  0  0  0  0  0  0
   -2.9301    3.9213    0.6346 C   0  0  0  0  0  0  0  0  0  0  0  0
   -3.7406    2.9779    1.5123 C   0  0  0  0  0  0  0  0  0  0  0  0
   -4.6327    3.8264    2.4044 C   0  0  0  0  0  0  0  0  0  0  0  0
   -4.3797    5.2890    2.1821 C   0  0  0  0  0  0  0  0  0  0  0  0
   -3.8500    4.6145    3.4149 C   0  0  0  0  0  0  0  0  0  0  0  0
   -2.7694    2.2369    2.4203 C   0  0  0  0  0  0  0  0  0  0  0  0
   -1.7649    1.4044    1.6356 C   0  0  0  0  0  0  0  0  0  0  0  0
    1.0000    1.0000    1.0000 C   0  0  0  0  0  0  0  0  0  0  0  0
    1.8487    0.1513    0.1513 N   0  0  0  0  0  0  0  0  0  0  0  0
    1.7598   -1.2129    0.2402 C   0  0  0  0  0  0  0  0  0  0  0  0
    0.9891   -1.7150    1.0109 O   0  0  0  0  0  0  0  0  0  0  0  0
    2.6374   -2.0905   -0.6374 C   0  0  0  0  0  0  0  0  0  0  0  0
    1.8776    1.8776    1.8776 C   0  0  0  0  0  0  0  0  0  0  0  0
    2.8824    1.0100    2.6179 C   0  0  0  0  0  0  0  0  0  0  0  0
    2.5504    0.4903    3.8647 C   0  0  0  0  0  0  0  0  0  0  0  0
    3.4664   -0.3047    4.5455 C   0  0  0  0  0  0  0  0  0  0  0  0
    4.7046   -0.5705    3.9693 C   0  0  0  0  0  0  0  0  0  0  0  0
    5.5967   -1.3413    4.6266 O   0  0  0  0  0  0  0  0  0  0  0  0
    5.0418   -0.0530    2.7228 C   0  0  0  0  0  0  0  0  0  0  0  0
    4.1218    0.7410    2.0463 C   0  0  0  0  0  0  0  0  0  0  0  0
  1  2  2  0
  2  3  1  0
  3  4  1  0
  4  5  1  0
  5  6  1  0
  6  7  1  0
  7  8  1  0
  8  9  1  0
  9  7  1  0
  6 10  1  0
 10 11  1  0
 11  3  1  0
  2 12  1  0
 12 13  1  0
 13 14  1  0
 14 15  2  0
 14 16  1  0
 12 17  1  0
 17 18  1  0
 18 19  2  0
 19 20  1  0
 20 21  2  0
 21 22  1  0
 21 23  1  0
 23 24  2  0
 24 18  1  0
M  END
$$$$
s_22____11950036____107332
     RDKit          3D

 25 27  0  0  0  0  0  0  0  0999 V2000
    5.8957   -1.5801    4.8239 Cl  0  0  0  0  0  0  0  0  0  0  0  0
    4.7153   -0.5657    3.9604 C   0  0  0  0  0  0  0  0  0  0  0  0
    3.3544   -0.8092    4.1090 C   0  0  0  0  0  0  0  0  0  0  0  0
    2.4285   -0.0192    3.4353 C   0  0  0  0  0  0  0  0  0  0  0  0
    2.8820    1.0104    2.6176 C   0  0  0  0  0  0  0  0  0  0  0  0
    4.2428    1.2540    2.4685 C   0  0  0  0  0  0  0  0  0  0  0  0
    5.1690    0.4639    3.1423 C   0  0  0  0  0  0  0  0  0  0  0  0
    1.8776    1.8776    1.8776 C   0  0  0  0  0  0  0  0  0  0  0  0
    1.0385    2.5935    2.8494 N   0  0  0  0  0  0  0  0  0  0  0  0
    1.0211    3.9634    2.8612 C   0  0  0  0  0  0  0  0  0  0  0  0
    1.6907    4.5788    2.0783 O   0  0  0  0  0  0  0  0  0  0  0  0
    0.1535    4.7037    3.8661 C   0  0  0  0  0  0  0  0  0  0  0  0
    1.0000    1.0000    1.0000 C   0  0  0  0  0  0  0  0  0  0  0  0
    1.8776    0.1224    0.1224 C   0  0  0  0  0  0  0  0  0  0  0  0
    2.9191    0.5450   -0.2979 O   0  0  0  0  0  0  0  0  0  0  0  0
    1.4795   -1.1510   -0.1886 N   0  0  0  0  0  0  0  0  0  0  0  0
    2.3271   -1.9986   -1.0362 C   0  0  0  0  0  0  0  0  0  0  0  0
    2.7221   -3.2497   -0.2693 C   0  0  0  0  0  0  0  0  0  0  0  0
    3.4626   -4.2284   -1.1673 C   0  0  0  0  0  0  0  0  0  0  0  0
    2.5933   -5.4447   -1.3456 C   0  0  0  0  0  0  0  0  0  0  0  0
    3.2098   -6.6187   -1.3740 F   0  0  0  0  0  0  0  0  0  0  0  0
    1.3242   -5.4121   -0.9424 F   0  0  0  0  0  0  0  0  0  0  0  0
    2.9228   -4.5525   -2.5295 C   0  0  0  0  0  0  0  0  0  0  0  0
    2.5084   -3.2292   -3.1796 C   0  0  0  0  0  0  0  0  0  0  0  0
    1.6223   -2.3084   -2.3481 C   0  0  0  0  0  0  0  0  0  0  0  0
  1  2  1  0
  2  3  2  0
  3  4  1  0
  4  5  2  0
  5  6  1  0
  6  7  2  0
  7  2  1  0
  5  8  1  0
  8  9  1  0
  9 10  1  0
 10 11  2  0
 10 12  1  0
  8 13  1  0
 13 14  1  0
 14 15  2  0
 14 16  1  0
 16 17  1  0
 17 18  1  0
 18 19  1  0
 19 20  1  0
 20 21  1  0
 20 22  1  0
 20 23  1  0
 23 19  1  0
 23 24  1  0
 24 25  1  0
 25 17  1  0
M  END
$$$$
s_22____505534____17512240
     RDKit          3D

 23 23  0  0  0  0  0  0  0  0999 V2000
    0.1081    3.0659    2.5193 O   0  0  0  0  0  0  0  0  0  0  0  0
    1.2902    2.8669    2.5755 C   0  0  0  0  0  0  0  0  0  0  0  0
    1.8487    1.8487    1.8487 N   0  0  0  0  0  0  0  0  0  0  0  0
    1.0000    1.0000    1.0000 C   0  0  0  0  0  0  0  0  0  0  0  0
    0.7075    1.7208   -0.3059 C   0  0  0  0  0  0  0  0  0  0  0  0
    2.0133    2.0133   -1.0267 C   0  0  0  0  0  0  0  0  0  0  0  0
    1.7208    2.7341   -2.3325 C   0  0  0  0  0  0  0  0  0  0  0  0
    3.0267    3.0267   -3.0533 C   0  0  0  0  0  0  0  0  0  0  0  0
    2.7341    3.7475   -4.3592 C   0  0  0  0  0  0  0  0  0  0  0  0
   -0.1701    0.8432   -1.1834 C   0  0  0  0  0  0  0  0  0  0  0  0
   -1.4760    0.5507   -0.4626 C   0  0  0  0  0  0  0  0  0  0  0  0
    2.1677    3.7445    3.4531 C   0  0  0  0  0  0  0  0  0  0  0  0
    3.4306    4.0274    2.7560 N   0  0  0  0  0  0  0  0  0  0  0  0
    4.6217    3.6431    3.3134 C   0  0  0  0  0  0  0  0  0  0  0  0
    4.6340    3.0757    4.3706 O   0  0  0  0  0  0  0  0  0  0  0  0
    5.9276    3.9357    2.5926 C   0  0  0  0  0  0  0  0  0  0  0  0
    1.4469    5.0503    3.7456 C   0  0  0  0  0  0  0  0  0  0  0  0
    2.3247    5.9281    4.6234 C   0  0  0  0  0  0  0  0  0  0  0  0
    3.2158    6.8192    4.0346 C   0  0  0  0  0  0  0  0  0  0  0  0
    4.0177    7.6199    4.8414 C   0  0  0  0  0  0  0  0  0  0  0  0
    3.9240    7.5269    6.2260 C   0  0  0  0  0  0  0  0  0  0  0  0
    3.0299    6.6335    6.8031 C   0  0  0  0  0  0  0  0  0  0  0  0
    2.2231    5.8269    6.0073 C   0  0  0  0  0  0  0  0  0  0  0  0
  1  2  2  0
  2  3  1  0
  3  4  1  0
  4  5  1  0
  5  6  1  0
  6  7  1  0
  7  8  1  0
  8  9  1  0
  5 10  1  0
 10 11  1  0
  2 12  1  0
 12 13  1  0
 13 14  1  0
 14 15  2  0
 14 16  1  0
 12 17  1  0
 17 18  1  0
 18 19  2  0
 19 20  1  0
 20 21  2  0
 21 22  1  0
 22 23  2  0
 23 18  1  0
M  END
$$$$
s_22____17608280____16887748
     RDKit          3D

 29 31  0  0  0  0  0  0  0  0999 V2000
    5.0852   -0.8125    2.1672 O   0  0  0  0  0  0  0  0  0  0  0  0
    3.9789   -0.3536    2.2411 C   0  0  0  0  0  0  0  0  0  0  0  0
    3.5034    0.0977    3.4441 N   0  0  0  0  0  0  0  0  0  0  0  0
    4.3491    0.0198    4.6451 C   0  0  0  0  0  0  0  0  0  0  0  0
    4.5475    1.4342    5.1767 C   0  0  0  0  0  0  0  0  0  0  0  0
    5.0465    1.5272    6.6154 C   0  0  0  0  0  0  0  0  0  0  0  0
    3.9541    1.4509    7.6810 C   0  0  0  0  0  0  0  0  0  0  0  0
    4.2296    2.1858    8.9591 C   0  0  0  0  0  0  0  0  0  0  0  0
    3.3897    2.8256    7.8870 C   0  0  0  0  0  0  0  0  0  0  0  0
    3.0170    0.2556    7.7990 C   0  0  0  0  0  0  0  0  0  0  0  0
    2.5846   -0.3193    6.4594 C   0  0  0  0  0  0  0  0  0  0  0  0
    3.7563   -0.9149    5.6899 C   0  0  0  0  0  0  0  0  0  0  0  0
    3.1050   -0.2731    1.0000 C   0  0  0  0  0  0  0  0  0  0  0  0
    2.3700    1.0000    1.0000 N   0  0  0  0  0  0  0  0  0  0  0  0
    1.0000    1.0000    1.0000 C   0  0  0  0  0  0  0  0  0  0  0  0
    0.4000   -0.0392    1.0000 O   0  0  0  0  0  0  0  0  0  0  0  0
    0.2400    2.3164    1.0000 C   0  0  0  0  0  0  0  0  0  0  0  0
   -1.1561    2.0569    1.0000 O   0  0  0  0  0  0  0  0  0  0  0  0
   -1.8661    3.2866    1.0000 C   0  0  0  0  0  0  0  0  0  0  0  0
   -3.3605    3.0089    1.0000 C   0  0  0  0  0  0  0  0  0  0  0  0
   -1.4989    4.0837    2.2411 C   0  0  0  0  0  0  0  0  0  0  0  0
    3.9789   -0.3536   -0.2411 C   0  0  0  0  0  0  0  0  0  0  0  0
    3.1050   -0.2731   -1.4822 C   0  0  0  0  0  0  0  0  0  0  0  0
    2.8226    0.9691   -2.0410 C   0  0  0  0  0  0  0  0  0  0  0  0
    2.0241    1.0476   -3.1770 C   0  0  0  0  0  0  0  0  0  0  0  0
    1.5177   -0.1192   -3.7409 C   0  0  0  0  0  0  0  0  0  0  0  0
    0.7420   -0.0476   -4.8432 O   0  0  0  0  0  0  0  0  0  0  0  0
    1.7968   -1.3640   -3.1858 C   0  0  0  0  0  0  0  0  0  0  0  0
    2.5962   -1.4366   -2.0500 C   0  0  0  0  0  0  0  0  0  0  0  0
  1  2  2  0
  2  3  1  0
  3  4  1  0
  4  5  1  0
  5  6  1  0
  6  7  1  0
  7  8  1  0
  8  9  1  0
  9  7  1  0
  7 10  1  0
 10 11  1  0
 11 12  1  0
 12  4  1  0
  2 13  1  0
 13 14  1  0
 14 15  1  0
 15 16  2  0
 15 17  1  0
 17 18  1  0
 18 19  1  0
 19 20  1  0
 19 21  1  0
 13 22  1  0
 22 23  1  0
 23 24  2  0
 24 25  1  0
 25 26  2  0
 26 27  1  0
 26 28  1  0
 28 29  2  0
 29 23  1  0
M  END
$$$$
s_240690a____16508828____17513472
     RDKit          3D

 24 25  0  0  0  0  0  0  0  0999 V2000
    0.4000   -0.0392    1.0000 O   0  0  0  0  0  0  0  0  0  0  0  0
    1.0000    1.0000    1.0000 C   0  0  0  0  0  0  0  0  0  0  0  0
    2.3700    1.0000    1.0000 N   0  0  0  0  0  0  0  0  0  0  0  0
    3.1050   -0.2731    1.0000 C   0  0  0  0  0  0  0  0  0  0  0  0
    4.6039    0.0055    1.0000 C   0  0  0  0  0  0  0  0  0  0  0  0
    5.0095    0.7486   -0.1371 O   0  0  0  0  0  0  0  0  0  0  0  0
    5.1722    0.5653    2.2916 C   0  0  0  0  0  0  0  0  0  0  0  0
    5.3585   -0.8718    2.7399 C   0  0  0  0  0  0  0  0  0  0  0  0
    6.6563   -1.0600    3.5100 C   0  0  0  0  0  0  0  0  0  0  0  0
    6.7842   -2.4664    3.9184 N   0  0  0  0  0  0  0  0  0  0  0  0
    5.4878   -1.1945    1.2651 C   0  0  0  0  0  0  0  0  0  0  0  0
    0.2400    2.3164    1.0000 C   0  0  0  0  0  0  0  0  0  0  0  0
   -1.2052    2.0477    1.0000 N   0  0  0  0  0  0  0  0  0  0  0  0
   -1.9871    2.5058    2.0275 C   0  0  0  0  0  0  0  0  0  0  0  0
   -1.4922    3.1263    2.9275 O   0  0  0  0  0  0  0  0  0  0  0  0
   -3.4815    2.2281    2.0275 C   0  0  0  0  0  0  0  0  0  0  0  0
    0.6072    3.1134   -0.2411 C   0  0  0  0  0  0  0  0  0  0  0  0
   -0.1528    4.4298   -0.2411 C   0  0  0  0  0  0  0  0  0  0  0  0
    0.4132    5.5469    0.3644 C   0  0  0  0  0  0  0  0  0  0  0  0
   -0.2782    6.7537    0.3662 C   0  0  0  0  0  0  0  0  0  0  0  0
   -1.5287    6.8280   -0.2391 C   0  0  0  0  0  0  0  0  0  0  0  0
   -2.2034    7.9972   -0.2393 O   0  0  0  0  0  0  0  0  0  0  0  0
   -2.0995    5.7138   -0.8457 C   0  0  0  0  0  0  0  0  0  0  0  0
   -1.4035    4.5097   -0.8449 C   0  0  0  0  0  0  0  0  0  0  0  0
  1  2  2  0
  2  3  1  0
  3  4  1  0
  4  5  1  0
  5  6  1  0
  5  7  1  0
  7  8  1  0
  8  9  1  0
  9 10  1  0
  8 11  1  0
 11  5  1  0
  2 12  1  0
 12 13  1  0
 13 14  1  0
 14 15  2  0
 14 16  1  0
 12 17  1  0
 17 18  1  0
 18 19  2  0
 19 20  1  0
 20 21  2  0
 21 22  1  0
 21 23  1  0
 23 24  2  0
 24 18  1  0
M  CHG  1  10   1
M  END
$$$$
s_22____12206138____59117
     RDKit          3D

 26 27  0  0  0  0  0  0  0  0999 V2000
    3.9272    2.8352    0.7118 O   0  0  0  0  0  0  0  0  0  0  0  0
    2.9767    2.2411    0.2835 C   0  0  0  0  0  0  0  0  0  0  0  0
    2.3756    2.6621   -0.8017 O   0  0  0  0  0  0  0  0  0  0  0  0
    2.8490    3.8216   -1.4711 C   0  0  0  0  0  0  0  0  0  0  0  0
    2.4700    1.0000    1.0000 C   0  0  0  0  0  0  0  0  0  0  0  0
    1.0000    1.0000    1.0000 N   0  0  0  0  0  0  0  0  0  0  0  0
    0.3150    1.0000    2.1865 C   0  0  0  0  0  0  0  0  0  0  0  0
    0.9150    1.0000    3.2257 O   0  0  0  0  0  0  0  0  0  0  0  0
   -1.2044    1.0000    2.1865 C   0  0  0  0  0  0  0  0  0  0  0  0
   -1.7280   -0.2360    1.4728 C   0  0  0  0  0  0  0  0  0  0  0  0
   -3.2487   -0.2488    1.4680 C   0  0  0  0  0  0  0  0  0  0  0  0
   -3.7612   -0.2170    2.8991 C   0  0  0  0  0  0  0  0  0  0  0  0
   -5.2807   -0.2246    2.9051 C   0  0  0  0  0  0  0  0  0  0  0  0
   -5.7819   -0.1926    4.3397 C   0  0  0  0  0  0  0  0  0  0  0  0
   -5.7964    0.9964    2.1610 C   0  0  0  0  0  0  0  0  0  0  0  0
   -5.7839   -1.4850    2.2206 C   0  0  0  0  0  0  0  0  0  0  0  0
   -3.2435    1.0167    3.6204 C   0  0  0  0  0  0  0  0  0  0  0  0
   -1.7232    1.0225    3.6153 C   0  0  0  0  0  0  0  0  0  0  0  0
    2.9767   -0.2411    0.2835 C   0  0  0  0  0  0  0  0  0  0  0  0
    4.4971   -0.2411    0.2835 C   0  0  0  0  0  0  0  0  0  0  0  0
    5.1926   -0.8436    1.3271 C   0  0  0  0  0  0  0  0  0  0  0  0
    4.5331   -1.4322    2.3479 O   0  0  0  0  0  0  0  0  0  0  0  0
    6.5840   -0.8435    1.3273 C   0  0  0  0  0  0  0  0  0  0  0  0
    7.2796   -0.2412    0.2834 C   0  0  0  0  0  0  0  0  0  0  0  0
    6.5837    0.3606   -0.7603 C   0  0  0  0  0  0  0  0  0  0  0  0
    5.1926    0.3600   -0.7604 C   0  0  0  0  0  0  0  0  0  0  0  0
  1  2  2  0
  2  3  1  0
  3  4  1  0
  2  5  1  0
  5  6  1  0
  6  7  1  0
  7  8  2  0
  7  9  1  0
  9 10  1  0
 10 11  1  0
 11 12  1  0
 12 13  1  0
 13 14  1  0
 13 15  1  0
 13 16  1  0
 12 17  1  0
 17 18  1  0
 18  9  1  0
  5 19  1  0
 19 20  1  0
 20 21  2  0
 21 22  1  0
 21 23  1  0
 23 24  2  0
 24 25  1  0
 25 26  2  0
 26 20  1  0
M  END
$$$$
s_527a____3701384____17057110
     RDKit          3D

 28 29  0  0  0  0  0  0  0  0999 V2000
    0.3056    2.8514   -0.2902 O   0  0  0  0  0  0  0  0  0  0  0  0
    0.7075    1.7208   -0.3059 C   0  0  0  0  0  0  0  0  0  0  0  0
    0.9068    1.0660   -1.5264 N   0  0  0  0  0  0  0  0  0  0  0  0
    1.0533    1.8798   -2.7434 C   0  0  0  0  0  0  0  0  0  0  0  0
    0.4864    1.1679   -3.9624 C   0  0  0  0  0  0  0  0  0  0  0  0
    0.9088   -0.2413   -4.0216 N   0  0  0  0  0  0  0  0  0  0  0  0
    0.2675   -0.8327   -5.2047 C   0  0  0  0  0  0  0  0  0  0  0  0
    0.4661   -2.3396   -5.1886 C   0  0  0  0  0  0  0  0  0  0  0  0
    1.8551   -2.6341   -5.2062 O   0  0  0  0  0  0  0  0  0  0  0  0
   -0.1971   -2.9511   -6.4119 C   0  0  0  0  0  0  0  0  0  0  0  0
    0.3955   -0.9664   -2.8473 C   0  0  0  0  0  0  0  0  0  0  0  0
    0.9491   -0.4051   -1.5458 C   0  0  0  0  0  0  0  0  0  0  0  0
    1.0000    1.0000    1.0000 C   0  0  0  0  0  0  0  0  0  0  0  0
    1.8487    1.8487    1.8487 N   0  0  0  0  0  0  0  0  0  0  0  0
    3.0831    1.4052    2.2442 C   0  0  0  0  0  0  0  0  0  0  0  0
    3.4002    0.2638    2.0530 O   0  0  0  0  0  0  0  0  0  0  0  0
    4.0511    2.3591    2.9251 C   0  0  0  0  0  0  0  0  0  0  0  0
    4.1963    1.9744    4.3885 C   0  0  0  0  0  0  0  0  0  0  0  0
    5.1643    2.9282    5.0694 C   0  0  0  0  0  0  0  0  0  0  0  0
    2.8405    2.0559    5.0707 C   0  0  0  0  0  0  0  0  0  0  0  0
   -0.3059    0.7075    1.7208 C   0  0  0  0  0  0  0  0  0  0  0  0
   -0.1561   -0.5602    2.5461 C   0  0  0  0  0  0  0  0  0  0  0  0
   -0.4624   -1.7901    1.9731 C   0  0  0  0  0  0  0  0  0  0  0  0
   -0.3262   -2.9527    2.7243 C   0  0  0  0  0  0  0  0  0  0  0  0
    0.1159   -2.8702    4.0409 C   0  0  0  0  0  0  0  0  0  0  0  0
    0.2492   -3.9960    4.7736 O   0  0  0  0  0  0  0  0  0  0  0  0
    0.4233   -1.6427    4.6189 C   0  0  0  0  0  0  0  0  0  0  0  0
    0.2856   -0.4834    3.8630 C   0  0  0  0  0  0  0  0  0  0  0  0
  1  2  2  0
  2  3  1  0
  3  4  1  0
  4  5  1  0
  5  6  1  0
  6  7  1  0
  7  8  1  0
  8  9  1  0
  8 10  1  0
  6 11  1  0
 11 12  1  0
 12  3  1  0
  2 13  1  0
 13 14  1  0
 14 15  1  0
 15 16  2  0
 15 17  1  0
 17 18  1  0
 18 19  1  0
 18 20  1  0
 13 21  1  0
 21 22  1  0
 22 23  2  0
 23 24  1  0
 24 25  2  0
 25 26  1  0
 25 27  1  0
 27 28  2  0
 28 22  1  0
M  CHG  1   6   1
M  END
$$$$
s_22____14174274____13217084
     RDKit          3D

 25 26  0  0  0  0  0  0  0  0999 V2000
    7.2285   -1.4228    2.3274 F   0  0  0  0  0  0  0  0  0  0  0  0
    6.5593   -0.8477    1.3326 C   0  0  0  0  0  0  0  0  0  0  0  0
    7.2608   -0.2478    0.2912 C   0  0  0  0  0  0  0  0  0  0  0  0
    8.6113   -0.2515    0.2959 O   0  0  0  0  0  0  0  0  0  0  0  0
    6.5828    0.3592   -0.7609 C   0  0  0  0  0  0  0  0  0  0  0  0
    5.1918    0.3601   -0.7605 C   0  0  0  0  0  0  0  0  0  0  0  0
    4.4963   -0.2411    0.2835 C   0  0  0  0  0  0  0  0  0  0  0  0
    5.1688   -0.8496    1.3375 C   0  0  0  0  0  0  0  0  0  0  0  0
    2.9767   -0.2411    0.2835 C   0  0  0  0  0  0  0  0  0  0  0  0
    2.4700    1.0000    1.0000 C   0  0  0  0  0  0  0  0  0  0  0  0
    1.0000    1.0000    1.0000 N   0  0  0  0  0  0  0  0  0  0  0  0
    0.3150    1.0000    2.1865 C   0  0  0  0  0  0  0  0  0  0  0  0
    0.9150    1.0000    3.2257 O   0  0  0  0  0  0  0  0  0  0  0  0
   -1.2048    1.0000    2.1865 C   0  0  0  0  0  0  0  0  0  0  0  0
   -1.7241    0.1226    1.1408 N   0  0  0  0  0  0  0  0  0  0  0  0
   -1.6250   -1.2891    1.5439 C   0  0  0  0  0  0  0  0  0  0  0  0
   -2.4308   -1.5113    2.8135 C   0  0  0  0  0  0  0  0  0  0  0  0
   -2.1731   -2.1723    0.4349 C   0  0  0  0  0  0  0  0  0  0  0  0
   -3.1221    0.5465    1.0429 C   0  0  0  0  0  0  0  0  0  0  0  0
   -3.0131    2.0564    1.0349 C   0  0  0  0  0  0  0  0  0  0  0  0
   -1.7100    2.3582    1.7497 C   0  0  0  0  0  0  0  0  0  0  0  0
    2.9767    2.2411    0.2835 C   0  0  0  0  0  0  0  0  0  0  0  0
    3.9272    2.8352    0.7118 O   0  0  0  0  0  0  0  0  0  0  0  0
    2.3756    2.6621   -0.8017 O   0  0  0  0  0  0  0  0  0  0  0  0
    2.8490    3.8216   -1.4711 C   0  0  0  0  0  0  0  0  0  0  0  0
  1  2  1  0
  2  3  2  0
  3  4  1  0
  3  5  1  0
  5  6  2  0
  6  7  1  0
  7  8  2  0
  8  2  1  0
  7  9  1  0
  9 10  1  0
 10 11  1  0
 11 12  1  0
 12 13  2  0
 12 14  1  0
 14 15  1  0
 15 16  1  0
 16 17  1  0
 16 18  1  0
 15 19  1  0
 19 20  1  0
 20 21  1  0
 21 14  1  0
 10 22  1  0
 22 23  2  0
 22 24  1  0
 24 25  1  0
M  CHG  1  15   1
M  END
$$$$
s_240690a____9111858____17513472
     RDKit          3D

 24 25  0  0  0  0  0  0  0  0999 V2000
    0.4000    1.0000   -0.0392 O   0  0  0  0  0  0  0  0  0  0  0  0
    1.0000    1.0000    1.0000 C   0  0  0  0  0  0  0  0  0  0  0  0
    0.3005    1.0000    2.2116 N   0  0  0  0  0  0  0  0  0  0  0  0
   -1.1701    1.0000    2.1752 C   0  0  0  0  0  0  0  0  0  0  0  0
   -1.7483    1.7660    3.3553 C   0  0  0  0  0  0  0  0  0  0  0  0
   -1.1059    1.3700    4.6185 N   0  0  0  0  0  0  0  0  0  0  0  0
    0.3149    1.7510    4.5689 C   0  0  0  0  0  0  0  0  0  0  0  0
    1.0583    1.0019    3.4733 C   0  0  0  0  0  0  0  0  0  0  0  0
   -3.2441    1.5010    3.4069 C   0  0  0  0  0  0  0  0  0  0  0  0
   -3.8785    1.9194    2.0905 C   0  0  0  0  0  0  0  0  0  0  0  0
   -3.4883    0.0187    3.6385 C   0  0  0  0  0  0  0  0  0  0  0  0
    2.5200    1.0000    1.0000 C   0  0  0  0  0  0  0  0  0  0  0  0
    3.0100    1.6930   -0.2002 N   0  0  0  0  0  0  0  0  0  0  0  0
    3.2383    3.0434   -0.1663 C   0  0  0  0  0  0  0  0  0  0  0  0
    3.0383    3.6605    0.8432 O   0  0  0  0  0  0  0  0  0  0  0  0
    3.7450    3.7599   -1.4074 C   0  0  0  0  0  0  0  0  0  0  0  0
    3.0267   -0.4331    1.0000 C   0  0  0  0  0  0  0  0  0  0  0  0
    4.5467   -0.4331    1.0000 C   0  0  0  0  0  0  0  0  0  0  0  0
    5.2311   -0.4331    2.2110 C   0  0  0  0  0  0  0  0  0  0  0  0
    6.6219   -0.4338    2.2159 C   0  0  0  0  0  0  0  0  0  0  0  0
    7.3116   -0.4351    1.0075 C   0  0  0  0  0  0  0  0  0  0  0  0
    8.7316   -0.4355    1.0077 O   0  0  0  0  0  0  0  0  0  0  0  0
    6.6320   -0.4347   -0.2063 C   0  0  0  0  0  0  0  0  0  0  0  0
    5.2412   -0.4344   -0.2053 C   0  0  0  0  0  0  0  0  0  0  0  0
  1  2  2  0
  2  3  1  0
  3  4  1  0
  4  5  1  0
  5  6  1  0
  6  7  1  0
  7  8  1  0
  8  3  1  0
  5  9  1  0
  9 10  1  0
  9 11  1  0
  2 12  1  0
 12 13  1  0
 13 14  1  0
 14 15  2  0
 14 16  1  0
 12 17  1  0
 17 18  1  0
 18 19  2  0
 19 20  1  0
 20 21  2  0
 21 22  1  0
 21 23  1  0
 23 24  2  0
 24 18  1  0
M  CHG  1   6   1
M  END
$$$$
s_527a____2308540____217437
     RDKit          3D

 26 27  0  0  0  0  0  0  0  0999 V2000
   -1.6377    5.4521    7.7313 F   0  0  0  0  0  0  0  0  0  0  0  0
   -1.4147    5.1609    6.4529 C   0  0  0  0  0  0  0  0  0  0  0  0
   -1.5989    6.2496    5.7115 F   0  0  0  0  0  0  0  0  0  0  0  0
    0.0144    4.6705    6.2867 C   0  0  0  0  0  0  0  0  0  0  0  0
    0.2608    4.3486    4.8738 N   0  0  0  0  0  0  0  0  0  0  0  0
    1.7207    4.2753    4.6974 C   0  0  0  0  0  0  0  0  0  0  0  0
    2.1023    3.8992    3.2736 C   0  0  0  0  0  0  0  0  0  0  0  0
    1.2920    2.7763    2.7763 N   0  0  0  0  0  0  0  0  0  0  0  0
    1.8776    1.8776    1.8776 C   0  0  0  0  0  0  0  0  0  0  0  0
    3.0725    1.7997    1.7997 O   0  0  0  0  0  0  0  0  0  0  0  0
    1.0000    1.0000    1.0000 C   0  0  0  0  0  0  0  0  0  0  0  0
    0.7075    1.7208   -0.3059 C   0  0  0  0  0  0  0  0  0  0  0  0
   -0.5184    2.5190   -0.1610 N   0  0  0  0  0  0  0  0  0  0  0  0
   -0.4439    3.8164    0.2726 C   0  0  0  0  0  0  0  0  0  0  0  0
    0.6222    4.3012    0.5343 O   0  0  0  0  0  0  0  0  0  0  0  0
   -1.7115    4.6417    0.4224 C   0  0  0  0  0  0  0  0  0  0  0  0
    0.5195    0.7004   -1.4167 C   0  0  0  0  0  0  0  0  0  0  0  0
   -0.7511    0.1969   -1.6756 C   0  0  0  0  0  0  0  0  0  0  0  0
   -0.9280   -0.7364   -2.6916 C   0  0  0  0  0  0  0  0  0  0  0  0
    0.1698   -1.1543   -3.4372 C   0  0  0  0  0  0  0  0  0  0  0  0
   -0.0061   -2.1072   -4.4752 O   0  0  0  0  0  0  0  0  0  0  0  0
    1.1100   -2.5381   -5.2400 C   0  0  0  0  0  0  0  0  0  0  0  0
    1.4426   -0.6541   -3.1821 C   0  0  0  0  0  0  0  0  0  0  0  0
    1.6137    0.2792   -2.1653 C   0  0  0  0  0  0  0  0  0  0  0  0
   -0.1013    2.5562    3.1963 C   0  0  0  0  0  0  0  0  0  0  0  0
   -0.3396    3.0276    4.6233 C   0  0  0  0  0  0  0  0  0  0  0  0
  1  2  1  0
  2  3  1  0
  2  4  1  0
  4  5  1  0
  5  6  1  0
  6  7  1  0
  7  8  1  0
  8  9  1  0
  9 10  2  0
  9 11  1  0
 11 12  1  0
 12 13  1  0
 13 14  1  0
 14 15  2  0
 14 16  1  0
 12 17  1  0
 17 18  2  0
 18 19  1  0
 19 20  2  0
 20 21  1  0
 21 22  1  0
 20 23  1  0
 23 24  2  0
 24 17  1  0
  8 25  1  0
 25 26  1  0
 26  5  1  0
M  CHG  1   5   1
M  END
$$$$
s_22____17611684____12624298
     RDKit          3D

 22 24  0  0  0  0  0  0  0  0999 V2000
   -3.7298    2.8980    2.8227 Br  0  0  0  0  0  0  0  0  0  0  0  0
   -2.4193    1.4646    2.5602 C   0  0  0  0  0  0  0  0  0  0  0  0
   -1.2259    1.7360    1.9001 C   0  0  0  0  0  0  0  0  0  0  0  0
   -0.3061    0.7074    1.7209 C   0  0  0  0  0  0  0  0  0  0  0  0
   -0.5660   -0.5755    2.1906 C   0  0  0  0  0  0  0  0  0  0  0  0
   -1.7663   -0.8254    2.8476 C   0  0  0  0  0  0  0  0  0  0  0  0
   -2.6994    0.1886    3.0373 C   0  0  0  0  0  0  0  0  0  0  0  0
    1.0000    1.0000    1.0000 C   0  0  0  0  0  0  0  0  0  0  0  0
    0.7171    1.6971   -0.2629 N   0  0  0  0  0  0  0  0  0  0  0  0
    1.1013    1.1397   -1.4540 C   0  0  0  0  0  0  0  0  0  0  0  0
    1.6688    0.0825   -1.4663 O   0  0  0  0  0  0  0  0  0  0  0  0
    0.8088    1.8605   -2.7598 C   0  0  0  0  0  0  0  0  0  0  0  0
    1.8776    1.8776    1.8776 C   0  0  0  0  0  0  0  0  0  0  0  0
    2.7694    1.3883    2.5142 O   0  0  0  0  0  0  0  0  0  0  0  0
    1.6504    3.2271    1.9417 N   0  0  0  0  0  0  0  0  0  0  0  0
    2.4983    4.0750    2.7896 C   0  0  0  0  0  0  0  0  0  0  0  0
    1.6918    4.7956    3.8564 C   0  0  0  0  0  0  0  0  0  0  0  0
    1.4350    4.0029    4.8915 F   0  0  0  0  0  0  0  0  0  0  0  0
    2.6019    5.9506    4.2275 C   0  0  0  0  0  0  0  0  0  0  0  0
    3.2042    6.4241    2.9200 C   0  0  0  0  0  0  0  0  0  0  0  0
    3.1338    5.2212    2.0248 C   0  0  0  0  0  0  0  0  0  0  0  0
    2.5546    6.5303    1.5654 C   0  0  0  0  0  0  0  0  0  0  0  0
  1  2  1  0
  2  3  2  0
  3  4  1  0
  4  5  2  0
  5  6  1  0
  6  7  2  0
  7  2  1  0
  4  8  1  0
  8  9  1  0
  9 10  1  0
 10 11  2  0
 10 12  1  0
  8 13  1  0
 13 14  2  0
 13 15  1  0
 15 16  1  0
 16 17  1  0
 17 18  1  0
 17 19  1  0
 19 20  1  0
 20 21  1  0
 21 16  1  0
 21 22  1  0
 22 20  1  0
M  END
$$$$
s_2708____11569280____914000
     RDKit          3D

 29 30  0  0  0  0  0  0  0  0999 V2000
    3.6177   -5.0245    0.7090 F   0  0  0  0  0  0  0  0  0  0  0  0
    3.3138   -3.8202    0.2325 C   0  0  0  0  0  0  0  0  0  0  0  0
    4.2121   -3.1576   -0.5977 C   0  0  0  0  0  0  0  0  0  0  0  0
    3.8878   -1.8981   -1.0914 C   0  0  0  0  0  0  0  0  0  0  0  0
    2.6712   -1.3171   -0.7498 C   0  0  0  0  0  0  0  0  0  0  0  0
    1.7767   -1.9843    0.0802 C   0  0  0  0  0  0  0  0  0  0  0  0
    2.0954   -3.2439    0.5765 C   0  0  0  0  0  0  0  0  0  0  0  0
    2.3231    0.0593   -1.2923 C   0  0  0  0  0  0  0  0  0  0  0  0
    2.9767    1.1249   -0.4276 C   0  0  0  0  0  0  0  0  0  0  0  0
    2.6285    2.5014   -0.9702 C   0  0  0  0  0  0  0  0  0  0  0  0
    1.5859    2.6765   -1.5379 O   0  0  0  0  0  0  0  0  0  0  0  0
    3.5051    3.5422   -0.8112 N   0  0  0  0  0  0  0  0  0  0  0  0
    3.1232    4.8964   -1.2371 C   0  0  0  0  0  0  0  0  0  0  0  0
    4.8274    3.3048   -0.2146 C   0  0  0  0  0  0  0  0  0  0  0  0
    2.4700    1.0000    1.0000 C   0  0  0  0  0  0  0  0  0  0  0  0
    1.0000    1.0000    1.0000 N   0  0  0  0  0  0  0  0  0  0  0  0
    0.3150    1.0000    2.1865 C   0  0  0  0  0  0  0  0  0  0  0  0
    0.9116    1.0906    3.2237 O   0  0  0  0  0  0  0  0  0  0  0  0
   -1.0511    0.8966    2.1887 N   0  0  0  0  0  0  0  0  0  0  0  0
   -1.7947    1.0070    3.4526 C   0  0  0  0  0  0  0  0  0  0  0  0
   -3.0168    0.1012    3.4440 C   0  0  0  0  0  0  0  0  0  0  0  0
   -2.6158   -1.3540    3.2588 C   0  0  0  0  0  0  0  0  0  0  0  0
   -1.4346   -1.6728    4.1606 C   0  0  0  0  0  0  0  0  0  0  0  0
   -3.7871   -2.2523    3.6213 C   0  0  0  0  0  0  0  0  0  0  0  0
   -2.2251   -1.5912    1.8091 C   0  0  0  0  0  0  0  0  0  0  0  0
   -3.7538    0.2888    4.7620 C   0  0  0  0  0  0  0  0  0  0  0  0
   -4.1628    1.7372    4.9900 C   0  0  0  0  0  0  0  0  0  0  0  0
   -3.6533    2.6617    3.8938 C   0  0  0  0  0  0  0  0  0  0  0  0
   -2.1619    2.4691    3.6585 C   0  0  0  0  0  0  0  0  0  0  0  0
  1  2  1  0
  2  3  2  0
  3  4  1  0
  4  5  2  0
  5  6  1  0
  6  7  2  0
  7  2  1  0
  5  8  1  0
  8  9  1  0
  9 10  1  0
 10 11  2  0
 10 12  1  0
 12 13  1  0
 12 14  1  0
  9 15  1  0
 15 16  1  0
 16 17  1  0
 17 18  2  0
 17 19  1  0
 19 20  1  0
 20 21  1  0
 21 22  1  0
 22 23  1  0
 22 24  1  0
 22 25  1  0
 21 26  1  0
 26 27  1  0
 27 28  1  0
 28 29  1  0
 29 20  1  0
M  END
$$$$
s_2708____13426432____914000
     RDKit          3D

 24 25  0  0  0  0  0  0  0  0999 V2000
    6.7291   -3.6823   -1.3500 F   0  0  0  0  0  0  0  0  0  0  0  0
    6.3959   -3.1062   -0.1986 C   0  0  0  0  0  0  0  0  0  0  0  0
    6.7493   -3.7175    0.9999 C   0  0  0  0  0  0  0  0  0  0  0  0
    6.3955   -3.1055    2.1978 C   0  0  0  0  0  0  0  0  0  0  0  0
    6.7350   -3.6919    3.3653 O   0  0  0  0  0  0  0  0  0  0  0  0
    5.6999   -1.9012    2.2122 C   0  0  0  0  0  0  0  0  0  0  0  0
    5.3592   -1.3113    1.0000 C   0  0  0  0  0  0  0  0  0  0  0  0
    5.7002   -1.9020   -0.2118 C   0  0  0  0  0  0  0  0  0  0  0  0
    4.5994    0.0047    1.0000 C   0  0  0  0  0  0  0  0  0  0  0  0
    3.1050   -0.2731    1.0000 C   0  0  0  0  0  0  0  0  0  0  0  0
    2.3700    1.0000    1.0000 N   0  0  0  0  0  0  0  0  0  0  0  0
    1.0000    1.0000    1.0000 C   0  0  0  0  0  0  0  0  0  0  0  0
    0.4000   -0.0392    1.0000 O   0  0  0  0  0  0  0  0  0  0  0  0
    0.3150    2.1865    1.0000 N   0  0  0  0  0  0  0  0  0  0  0  0
   -1.1388    2.1961    0.7789 C   0  0  0  0  0  0  0  0  0  0  0  0
   -1.5524    3.3971   -0.0580 C   0  0  0  0  0  0  0  0  0  0  0  0
   -0.8693    3.3766   -1.4165 C   0  0  0  0  0  0  0  0  0  0  0  0
   -0.9453    1.9754   -2.0007 C   0  0  0  0  0  0  0  0  0  0  0  0
   -1.5670    4.3531   -2.3493 C   0  0  0  0  0  0  0  0  0  0  0  0
    0.5873    3.7808   -1.2573 C   0  0  0  0  0  0  0  0  0  0  0  0
   -3.0650    3.3625   -0.2199 C   0  0  0  0  0  0  0  0  0  0  0  0
   -3.7863    3.3703    1.1206 C   0  0  0  0  0  0  0  0  0  0  0  0
   -2.8221    3.3140    2.2967 C   0  0  0  0  0  0  0  0  0  0  0  0
   -1.8234    2.1765    2.1375 C   0  0  0  0  0  0  0  0  0  0  0  0
  1  2  1  0
  2  3  2  0
  3  4  1  0
  4  5  1  0
  4  6  2  0
  6  7  1  0
  7  8  2  0
  8  2  1  0
  7  9  1  0
  9 10  1  0
 10 11  1  0
 11 12  1  0
 12 13  2  0
 12 14  1  0
 14 15  1  0
 15 16  1  0
 16 17  1  0
 17 18  1  0
 17 19  1  0
 17 20  1  0
 16 21  1  0
 21 22  1  0
 22 23  1  0
 23 24  1  0
 24 15  1  0
M  END
$$$$
s_22____11354082____107332
     RDKit          3D

 25 26  0  0  0  0  0  0  0  0999 V2000
   -2.7942    6.5503    0.7877 Cl  0  0  0  0  0  0  0  0  0  0  0  0
   -1.7679    5.1320    0.4668 C   0  0  0  0  0  0  0  0  0  0  0  0
   -2.2011    3.8654    0.8430 C   0  0  0  0  0  0  0  0  0  0  0  0
   -1.4017    2.7542    0.5947 C   0  0  0  0  0  0  0  0  0  0  0  0
   -0.1722    2.9289   -0.0315 C   0  0  0  0  0  0  0  0  0  0  0  0
    0.2615    4.1952   -0.4077 C   0  0  0  0  0  0  0  0  0  0  0  0
   -0.5380    5.3067   -0.1593 C   0  0  0  0  0  0  0  0  0  0  0  0
    0.7075    1.7208   -0.3059 C   0  0  0  0  0  0  0  0  0  0  0  0
    0.0129    0.8075   -1.2248 N   0  0  0  0  0  0  0  0  0  0  0  0
    0.5721    0.4993   -2.4369 C   0  0  0  0  0  0  0  0  0  0  0  0
    1.6288    0.9750   -2.7485 O   0  0  0  0  0  0  0  0  0  0  0  0
   -0.1461   -0.4450   -3.3871 C   0  0  0  0  0  0  0  0  0  0  0  0
    1.0000    1.0000    1.0000 C   0  0  0  0  0  0  0  0  0  0  0  0
    1.8776    1.8776    1.8776 C   0  0  0  0  0  0  0  0  0  0  0  0
    1.9688    3.0524    1.6507 O   0  0  0  0  0  0  0  0  0  0  0  0
    2.5644    1.3273    2.9275 N   0  0  0  0  0  0  0  0  0  0  0  0
    3.4128    2.1758    3.7760 C   0  0  0  0  0  0  0  0  0  0  0  0
    4.8510    1.6865    3.7241 C   0  0  0  0  0  0  0  0  0  0  0  0
    5.7322    2.5587    4.6038 C   0  0  0  0  0  0  0  0  0  0  0  0
    5.2300    2.5310    6.0388 C   0  0  0  0  0  0  0  0  0  0  0  0
    6.0780    3.3854    6.8823 N   0  0  0  0  0  0  0  0  0  0  0  0
    7.4624    2.8925    6.8436 C   0  0  0  0  0  0  0  0  0  0  0  0
    6.0353    4.7664    6.3803 C   0  0  0  0  0  0  0  0  0  0  0  0
    3.7931    3.0245    6.0834 C   0  0  0  0  0  0  0  0  0  0  0  0
    2.9086    2.1497    5.2097 C   0  0  0  0  0  0  0  0  0  0  0  0
  1  2  1  0
  2  3  2  0
  3  4  1  0
  4  5  2  0
  5  6  1  0
  6  7  2  0
  7  2  1  0
  5  8  1  0
  8  9  1  0
  9 10  1  0
 10 11  2  0
 10 12  1  0
  8 13  1  0
 13 14  1  0
 14 15  2  0
 14 16  1  0
 16 17  1  0
 17 18  1  0
 18 19  1  0
 19 20  1  0
 20 21  1  0
 21 22  1  0
 21 23  1  0
 20 24  1  0
 24 25  1  0
 25 17  1  0
M  CHG  1  21   1
M  END
$$$$
s_527a____5125430____10749754
     RDKit          3D

 22 23  0  0  0  0  0  0  0  0999 V2000
    0.9150    1.0000    3.2257 O   0  0  0  0  0  0  0  0  0  0  0  0
    0.3150    1.0000    2.1865 C   0  0  0  0  0  0  0  0  0  0  0  0
    1.0000    1.0000    1.0000 N   0  0  0  0  0  0  0  0  0  0  0  0
    2.4700    1.0000    1.0000 C   0  0  0  0  0  0  0  0  0  0  0  0
    2.9767    1.0000   -0.4331 C   0  0  0  0  0  0  0  0  0  0  0  0
    4.4967    1.0000   -0.4331 C   0  0  0  0  0  0  0  0  0  0  0  0
    5.0033    1.0000   -1.8662 C   0  0  0  0  0  0  0  0  0  0  0  0
    5.2315    2.2110   -2.5114 C   0  0  0  0  0  0  0  0  0  0  0  0
    5.6958    2.2159   -3.8225 C   0  0  0  0  0  0  0  0  0  0  0  0
    5.9269    1.0075   -4.4723 C   0  0  0  0  0  0  0  0  0  0  0  0
    6.3772    1.0077   -5.7448 O   0  0  0  0  0  0  0  0  0  0  0  0
    5.7000   -0.2063   -3.8316 C   0  0  0  0  0  0  0  0  0  0  0  0
    5.2361   -0.2053   -2.5205 C   0  0  0  0  0  0  0  0  0  0  0  0
   -1.2079    1.0000    2.1865 C   0  0  0  0  0  0  0  0  0  0  0  0
   -1.7347   -0.2349    1.4735 C   0  0  0  0  0  0  0  0  0  0  0  0
   -3.2548   -0.2222    1.4562 C   0  0  0  0  0  0  0  0  0  0  0  0
   -3.7563    0.9940    0.7991 N   0  0  0  0  0  0  0  0  0  0  0  0
   -5.2279    0.9944    0.7584 C   0  0  0  0  0  0  0  0  0  0  0  0
   -5.7136   -0.2191   -0.0176 C   0  0  0  0  0  0  0  0  0  0  0  0
   -5.7740    0.9412    2.1759 C   0  0  0  0  0  0  0  0  0  0  0  0
   -3.2577    2.2144    1.4505 C   0  0  0  0  0  0  0  0  0  0  0  0
   -1.7375    2.2289    1.4649 C   0  0  0  0  0  0  0  0  0  0  0  0
  1  2  2  0
  2  3  1  0
  3  4  1  0
  4  5  1  0
  5  6  1  0
  6  7  1  0
  7  8  2  0
  8  9  1  0
  9 10  2  0
 10 11  1  0
 10 12  1  0
 12 13  2  0
 13  7  1  0
  2 14  1  0
 14 15  1  0
 15 16  1  0
 16 17  1  0
 17 18  1  0
 18 19  1  0
 18 20  1  0
 17 21  1  0
 21 22  1  0
 22 14  1  0
M  CHG  1  17   1
M  END
$$$$
s_22____10744164____12624298
     RDKit          3D

 25 25  0  0  0  0  0  0  0  0999 V2000
    5.9532   -0.9938   -3.5680 Br  0  0  0  0  0  0  0  0  0  0  0  0
    4.3464   -1.2238   -2.4696 C   0  0  0  0  0  0  0  0  0  0  0  0
    4.3157   -0.7074   -1.1789 C   0  0  0  0  0  0  0  0  0  0  0  0
    3.1678   -0.8797   -0.4115 C   0  0  0  0  0  0  0  0  0  0  0  0
    2.0630   -1.5561   -0.9175 C   0  0  0  0  0  0  0  0  0  0  0  0
    2.1153   -2.0652   -2.2109 C   0  0  0  0  0  0  0  0  0  0  0  0
    3.2529   -1.9040   -2.9949 C   0  0  0  0  0  0  0  0  0  0  0  0
    3.1300   -0.3164    1.0000 C   0  0  0  0  0  0  0  0  0  0  0  0
    2.4556   -1.2716    1.8909 N   0  0  0  0  0  0  0  0  0  0  0  0
    3.1241   -1.7951    2.9660 C   0  0  0  0  0  0  0  0  0  0  0  0
    4.2602   -1.4738    3.1805 O   0  0  0  0  0  0  0  0  0  0  0  0
    2.4267   -2.7827    3.8871 C   0  0  0  0  0  0  0  0  0  0  0  0
    2.3700    1.0000    1.0000 C   0  0  0  0  0  0  0  0  0  0  0  0
    2.9700    2.0392    1.0000 O   0  0  0  0  0  0  0  0  0  0  0  0
    1.0000    1.0000    1.0000 N   0  0  0  0  0  0  0  0  0  0  0  0
    0.2650    2.2731    1.0000 C   0  0  0  0  0  0  0  0  0  0  0  0
   -0.3095    2.5264   -0.3842 C   0  0  0  0  0  0  0  0  0  0  0  0
    0.5808    3.5064   -1.1308 C   0  0  0  0  0  0  0  0  0  0  0  0
   -0.2767    4.3999   -2.0121 C   0  0  0  0  0  0  0  0  0  0  0  0
    1.3427    4.3614   -0.1314 C   0  0  0  0  0  0  0  0  0  0  0  0
   -0.3769    1.2165   -1.1524 C   0  0  0  0  0  0  0  0  0  0  0  0
    0.7279    1.1312   -2.0405 O   0  0  0  0  0  0  0  0  0  0  0  0
   -0.8659    2.2052    2.0133 C   0  0  0  0  0  0  0  0  0  0  0  0
   -0.2914    1.9518    3.3976 C   0  0  0  0  0  0  0  0  0  0  0  0
   -1.6259    3.5215    2.0133 C   0  0  0  0  0  0  0  0  0  0  0  0
  1  2  1  0
  2  3  2  0
  3  4  1  0
  4  5  2  0
  5  6  1  0
  6  7  2  0
  7  2  1  0
  4  8  1  0
  8  9  1  0
  9 10  1  0
 10 11  2  0
 10 12  1  0
  8 13  1  0
 13 14  2  0
 13 15  1  0
 15 16  1  0
 16 17  1  0
 17 18  1  0
 18 19  1  0
 18 20  1  0
 17 21  1  0
 21 22  1  0
 16 23  1  0
 23 24  1  0
 23 25  1  0
M  END
$$$$
s_11a____13425816____16717356
     RDKit          3D

 28 30  0  0  0  0  0  0  0  0999 V2000
    5.0852   -0.8125    2.1672 O   0  0  0  0  0  0  0  0  0  0  0  0
    3.9789   -0.3536    2.2411 C   0  0  0  0  0  0  0  0  0  0  0  0
    3.5034    0.0977    3.4441 N   0  0  0  0  0  0  0  0  0  0  0  0
    4.3497    0.0198    4.6460 C   0  0  0  0  0  0  0  0  0  0  0  0
    4.5779    1.4125    5.2165 C   0  0  0  0  0  0  0  0  0  0  0  0
    5.4679    1.3626    6.4488 C   0  0  0  0  0  0  0  0  0  0  0  0
    6.9641    1.3592    6.3027 C   0  0  0  0  0  0  0  0  0  0  0  0
    6.2634    2.5482    6.9055 C   0  0  0  0  0  0  0  0  0  0  0  0
    4.7629    0.4844    7.4722 C   0  0  0  0  0  0  0  0  0  0  0  0
    4.5511   -0.9241    6.9381 C   0  0  0  0  0  0  0  0  0  0  0  0
    3.6737   -0.8483    5.6977 C   0  0  0  0  0  0  0  0  0  0  0  0
    3.1050   -0.2731    1.0000 C   0  0  0  0  0  0  0  0  0  0  0  0
    2.3700    1.0000    1.0000 N   0  0  0  0  0  0  0  0  0  0  0  0
    1.0000    1.0000    1.0000 C   0  0  0  0  0  0  0  0  0  0  0  0
    0.4000   -0.0392    1.0000 O   0  0  0  0  0  0  0  0  0  0  0  0
    0.2400    2.3164    1.0000 C   0  0  0  0  0  0  0  0  0  0  0  0
   -1.2052    2.0477    1.0000 N   0  0  0  0  0  0  0  0  0  0  0  0
   -1.8411    1.7200    2.1684 C   0  0  0  0  0  0  0  0  0  0  0  0
   -1.2182    1.6522    3.1919 O   0  0  0  0  0  0  0  0  0  0  0  0
   -3.3355    1.4423    2.1684 C   0  0  0  0  0  0  0  0  0  0  0  0
    3.9789   -0.3536   -0.2411 C   0  0  0  0  0  0  0  0  0  0  0  0
    3.1050   -0.2731   -1.4822 C   0  0  0  0  0  0  0  0  0  0  0  0
    2.8226    0.9691   -2.0410 C   0  0  0  0  0  0  0  0  0  0  0  0
    2.0241    1.0476   -3.1770 C   0  0  0  0  0  0  0  0  0  0  0  0
    1.5177   -0.1192   -3.7409 C   0  0  0  0  0  0  0  0  0  0  0  0
    0.7420   -0.0476   -4.8432 O   0  0  0  0  0  0  0  0  0  0  0  0
    1.7968   -1.3640   -3.1858 C   0  0  0  0  0  0  0  0  0  0  0  0
    2.5962   -1.4366   -2.0500 C   0  0  0  0  0  0  0  0  0  0  0  0
  1  2  2  0
  2  3  1  0
  3  4  1  0
  4  5  1  0
  5  6  1  0
  6  7  1  0
  7  8  1  0
  8  6  1  0
  6  9  1  0
  9 10  1  0
 10 11  1  0
 11  4  1  0
  2 12  1  0
 12 13  1  0
 13 14  1  0
 14 15  2  0
 14 16  1  0
 16 17  1  0
 17 18  1  0
 18 19  2  0
 18 20  1  0
 12 21  1  0
 21 22  1  0
 22 23  2  0
 23 24  1  0
 24 25  2  0
 25 26  1  0
 25 27  1  0
 27 28  2  0
 28 22  1  0
M  END
$$$$
s_272212____13256134____12907916
     RDKit          3D

 25 27  0  0  0  0  0  0  0  0999 V2000
    7.2551    6.0772    5.0050 F   0  0  0  0  0  0  0  0  0  0  0  0
    7.3694    4.8072    5.3838 C   0  0  0  0  0  0  0  0  0  0  0  0
    7.0453    4.4418    6.6864 C   0  0  0  0  0  0  0  0  0  0  0  0
    7.1682    3.1119    7.0756 C   0  0  0  0  0  0  0  0  0  0  0  0
    7.6127    2.1646    6.1593 C   0  0  0  0  0  0  0  0  0  0  0  0
    7.9347    2.5355    4.8582 C   0  0  0  0  0  0  0  0  0  0  0  0
    7.8135    3.8636    4.4633 C   0  0  0  0  0  0  0  0  0  0  0  0
    7.7449    0.7134    6.5909 C   0  0  0  0  0  0  0  0  0  0  0  0
    6.4338   -0.0152    6.3299 C   0  0  0  0  0  0  0  0  0  0  0  0
    5.4042    0.6664    7.1141 N   0  0  0  0  0  0  0  0  0  0  0  0
    4.5138    1.2870    6.2378 C   0  0  0  0  0  0  0  0  0  0  0  0
    3.5507    1.9533    6.5762 O   0  0  0  0  0  0  0  0  0  0  0  0
    4.8866    1.0330    4.9186 N   0  0  0  0  0  0  0  0  0  0  0  0
    6.0293    0.2371    4.8959 C   0  0  0  0  0  0  0  0  0  0  0  0
    6.5915   -0.1888    3.9010 O   0  0  0  0  0  0  0  0  0  0  0  0
    4.1731    1.5210    3.7307 C   0  0  0  0  0  0  0  0  0  0  0  0
    4.1423    3.0416    3.7326 C   0  0  0  0  0  0  0  0  0  0  0  0
    3.3836    3.5389    2.5124 C   0  0  0  0  0  0  0  0  0  0  0  0
    2.0132    3.0059    2.4862 N   0  0  0  0  0  0  0  0  0  0  0  0
    2.0020    1.5354    2.5080 C   0  0  0  0  0  0  0  0  0  0  0  0
    2.7414    1.0098    3.7282 C   0  0  0  0  0  0  0  0  0  0  0  0
    1.2711    3.5130    1.3202 C   0  0  0  0  0  0  0  0  0  0  0  0
   -0.1372    2.9412    1.3280 C   0  0  0  0  0  0  0  0  0  0  0  0
   -0.9033    3.4647    0.1241 C   0  0  0  0  0  0  0  0  0  0  0  0
    6.5697   -1.4909    6.6593 C   0  0  0  0  0  0  0  0  0  0  0  0
  1  2  1  0
  2  3  2  0
  3  4  1  0
  4  5  2  0
  5  6  1  0
  6  7  2  0
  7  2  1  0
  5  8  1  0
  8  9  1  0
  9 10  1  0
 10 11  1  0
 11 12  2  0
 11 13  1  0
 13 14  1  0
 14  9  1  0
 14 15  2  0
 13 16  1  0
 16 17  1  0
 17 18  1  0
 18 19  1  0
 19 20  1  0
 20 21  1  0
 21 16  1  0
 19 22  1  0
 22 23  1  0
 23 24  1  0
  9 25  1  0
M  CHG  1  19   1
M  END
$$$$
s_22____8253308____220032
     RDKit          3D

 23 24  0  0  0  0  0  0  0  0999 V2000
    1.9658    0.0276   -2.6295 S   0  0  0  0  0  0  0  0  0  0  0  0
    3.0192    0.2367   -1.3103 C   0  0  0  0  0  0  0  0  0  0  0  0
    3.8385   -0.8481   -1.2686 C   0  0  0  0  0  0  0  0  0  0  0  0
    3.5641   -1.7939   -2.2950 C   0  0  0  0  0  0  0  0  0  0  0  0
    2.5515   -1.4833   -3.1523 C   0  0  0  0  0  0  0  0  0  0  0  0
    3.0267    1.4309   -0.3667 C   0  0  0  0  0  0  0  0  0  0  0  0
    4.3972    1.9473   -0.2408 N   0  0  0  0  0  0  0  0  0  0  0  0
    4.6793    3.2374   -0.6054 C   0  0  0  0  0  0  0  0  0  0  0  0
    3.8076    3.9459   -1.0276 O   0  0  0  0  0  0  0  0  0  0  0  0
    6.0965    3.7714   -0.4752 C   0  0  0  0  0  0  0  0  0  0  0  0
    2.5200    1.0000    1.0000 C   0  0  0  0  0  0  0  0  0  0  0  0
    1.0000    1.0000    1.0000 C   0  0  0  0  0  0  0  0  0  0  0  0
    0.4000    1.0000   -0.0392 O   0  0  0  0  0  0  0  0  0  0  0  0
    0.3150    1.0000    2.1865 N   0  0  0  0  0  0  0  0  0  0  0  0
   -1.1550    1.0000    2.1865 C   0  0  0  0  0  0  0  0  0  0  0  0
   -1.6606   -0.2424    2.9037 C   0  0  0  0  0  0  0  0  0  0  0  0
   -3.1797   -0.2131    2.9922 C   0  0  0  0  0  0  0  0  0  0  0  0
   -3.6926    1.0398    3.6898 C   0  0  0  0  0  0  0  0  0  0  0  0
   -5.1120    1.0304    3.6903 O   0  0  0  0  0  0  0  0  0  0  0  0
   -3.1926    2.2495    2.9130 C   0  0  0  0  0  0  0  0  0  0  0  0
   -1.6759    2.2874    2.8045 C   0  0  0  0  0  0  0  0  0  0  0  0
   -3.2570    1.0920    5.1467 C   0  0  0  0  0  0  0  0  0  0  0  0
   -3.9793    2.2289    5.8511 C   0  0  0  0  0  0  0  0  0  0  0  0
  1  2  1  0
  2  3  2  0
  3  4  1  0
  4  5  2  0
  5  1  1  0
  2  6  1  0
  6  7  1  0
  7  8  1  0
  8  9  2  0
  8 10  1  0
  6 11  1  0
 11 12  1  0
 12 13  2  0
 12 14  1  0
 14 15  1  0
 15 16  1  0
 16 17  1  0
 17 18  1  0
 18 19  1  0
 18 20  1  0
 20 21  1  0
 21 15  1  0
 18 22  1  0
 22 23  1  0
M  END
$$$$
s_22____4995050____59693
     RDKit          3D

 25 26  0  0  0  0  0  0  0  0999 V2000
    3.0596    0.0662    0.3214 O   0  0  0  0  0  0  0  0  0  0  0  0
    1.8776    0.1224    0.1224 C   0  0  0  0  0  0  0  0  0  0  0  0
    1.3062   -0.6210   -0.9191 N   0  0  0  0  0  0  0  0  0  0  0  0
    2.1739   -1.4654   -1.7582 C   0  0  0  0  0  0  0  0  0  0  0  0
    2.3252   -2.8761   -1.2076 C   0  0  0  0  0  0  0  0  0  0  0  0
    1.0718   -3.7108   -1.4254 C   0  0  0  0  0  0  0  0  0  0  0  0
    1.2932   -5.0673   -0.7799 C   0  0  0  0  0  0  0  0  0  0  0  0
    0.0579   -5.9305   -0.9782 C   0  0  0  0  0  0  0  0  0  0  0  0
    2.4929   -5.7444   -1.4223 C   0  0  0  0  0  0  0  0  0  0  0  0
    1.5504   -4.8849    0.7070 C   0  0  0  0  0  0  0  0  0  0  0  0
   -0.1903   -3.0965   -0.8328 C   0  0  0  0  0  0  0  0  0  0  0  0
   -0.7246   -1.8989   -1.6115 C   0  0  0  0  0  0  0  0  0  0  0  0
   -0.1445   -0.5639   -1.1623 C   0  0  0  0  0  0  0  0  0  0  0  0
    1.0000    1.0000    1.0000 C   0  0  0  0  0  0  0  0  0  0  0  0
    1.8776    1.8776    1.8776 C   0  0  0  0  0  0  0  0  0  0  0  0
    1.0385    2.8494    2.5935 N   0  0  0  0  0  0  0  0  0  0  0  0
    1.2401    4.1924    2.4132 C   0  0  0  0  0  0  0  0  0  0  0  0
    2.1015    4.5755    1.6708 O   0  0  0  0  0  0  0  0  0  0  0  0
    0.3725    5.1972    3.1535 C   0  0  0  0  0  0  0  0  0  0  0  0
    2.6180    1.0098    2.8826 C   0  0  0  0  0  0  0  0  0  0  0  0
    1.8991    0.1966    3.7524 C   0  0  0  0  0  0  0  0  0  0  0  0
    2.5805   -0.5952    4.6711 C   0  0  0  0  0  0  0  0  0  0  0  0
    3.9705   -0.5709    4.7142 C   0  0  0  0  0  0  0  0  0  0  0  0
    4.6783    0.2450    3.8401 C   0  0  0  0  0  0  0  0  0  0  0  0
    4.0085    1.0418    2.9174 C   0  0  0  0  0  0  0  0  0  0  0  0
  1  2  2  0
  2  3  1  0
  3  4  1  0
  4  5  1  0
  5  6  1  0
  6  7  1  0
  7  8  1  0
  7  9  1  0
  7 10  1  0
  6 11  1  0
 11 12  1  0
 12 13  1  0
 13  3  1  0
  2 14  1  0
 14 15  1  0
 15 16  1  0
 16 17  1  0
 17 18  2  0
 17 19  1  0
 15 20  1  0
 20 21  2  0
 21 22  1  0
 22 23  2  0
 23 24  1  0
 24 25  2  0
 25 20  1  0
M  END
$$$$
s_22____564362____13022876
     RDKit          3D

 26 27  0  0  0  0  0  0  0  0999 V2000
    0.8843    0.7310    3.2080 O   0  0  0  0  0  0  0  0  0  0  0  0
    0.3150    1.0000    2.1865 C   0  0  0  0  0  0  0  0  0  0  0  0
    1.0000    1.0000    1.0000 N   0  0  0  0  0  0  0  0  0  0  0  0
    2.4700    1.0000    1.0000 C   0  0  0  0  0  0  0  0  0  0  0  0
    2.9768    2.4335    1.0000 C   0  0  0  0  0  0  0  0  0  0  0  0
    3.2087    3.0892   -0.2051 C   0  0  0  0  0  0  0  0  0  0  0  0
    2.9894    2.4672   -1.3834 O   0  0  0  0  0  0  0  0  0  0  0  0
    3.2315    3.1520   -2.6036 C   0  0  0  0  0  0  0  0  0  0  0  0
    2.9082    2.2351   -3.7720 C   0  0  0  0  0  0  0  0  0  0  0  0
    3.6727    4.4009   -0.2052 C   0  0  0  0  0  0  0  0  0  0  0  0
    3.9042    5.0569    1.0000 C   0  0  0  0  0  0  0  0  0  0  0  0
    3.6715    4.4010    2.2048 C   0  0  0  0  0  0  0  0  0  0  0  0
    3.2074    3.0897    2.2045 C   0  0  0  0  0  0  0  0  0  0  0  0
    0.2650    1.0000   -0.2731 C   0  0  0  0  0  0  0  0  0  0  0  0
   -0.1234   -0.4246   -0.6338 C   0  0  0  0  0  0  0  0  0  0  0  0
    1.0482   -1.2162   -0.7637 O   0  0  0  0  0  0  0  0  0  0  0  0
   -0.8834   -0.4246   -1.9502 C   0  0  0  0  0  0  0  0  0  0  0  0
   -1.1663    1.3407    2.2089 C   0  0  0  0  0  0  0  0  0  0  0  0
   -1.4090    2.7395    2.7575 C   0  0  0  0  0  0  0  0  0  0  0  0
   -2.8429    3.0707    2.8012 N   0  0  0  0  0  0  0  0  0  0  0  0
   -3.5870    2.0989    3.6166 C   0  0  0  0  0  0  0  0  0  0  0  0
   -3.3991    0.6885    3.0811 C   0  0  0  0  0  0  0  0  0  0  0  0
   -1.9195    0.3383    3.0680 C   0  0  0  0  0  0  0  0  0  0  0  0
   -3.0408    4.4453    3.2993 C   0  0  0  0  0  0  0  0  0  0  0  0
   -4.4855    4.6225    3.7372 C   0  0  0  0  0  0  0  0  0  0  0  0
   -4.6893    6.0387    4.2502 C   0  0  0  0  0  0  0  0  0  0  0  0
  1  2  2  0
  2  3  1  0
  3  4  1  0
  4  5  1  0
  5  6  2  0
  6  7  1  0
  7  8  1  0
  8  9  1  0
  6 10  1  0
 10 11  2  0
 11 12  1  0
 12 13  2  0
 13  5  1  0
  3 14  1  0
 14 15  1  0
 15 16  1  0
 15 17  1  0
  2 18  1  0
 18 19  1  0
 19 20  1  0
 20 21  1  0
 21 22  1  0
 22 23  1  0
 23 18  1  0
 20 24  1  0
 24 25  1  0
 25 26  1  0
M  CHG  1  20   1
M  END
$$$$
s_22____15356050____17057108
     RDKit          3D

 29 31  0  0  0  0  0  0  0  0999 V2000
    3.8986   -7.2677    0.4699 F   0  0  0  0  0  0  0  0  0  0  0  0
    4.3303   -6.5010   -0.5275 C   0  0  0  0  0  0  0  0  0  0  0  0
    5.0375   -7.0580   -1.5065 F   0  0  0  0  0  0  0  0  0  0  0  0
    3.4292   -5.3669   -0.9371 C   0  0  0  0  0  0  0  0  0  0  0  0
    4.6873   -5.0863   -0.1641 C   0  0  0  0  0  0  0  0  0  0  0  0
    5.4123   -3.9860   -0.9267 C   0  0  0  0  0  0  0  0  0  0  0  0
    4.5085   -2.8060   -1.2802 C   0  0  0  0  0  0  0  0  0  0  0  0
    3.4809   -2.5220   -0.1961 C   0  0  0  0  0  0  0  0  0  0  0  0
    3.2050   -1.0789   -0.1865 N   0  0  0  0  0  0  0  0  0  0  0  0
    2.9767   -0.4331    1.0000 C   0  0  0  0  0  0  0  0  0  0  0  0
    3.1767   -0.9988    2.0392 O   0  0  0  0  0  0  0  0  0  0  0  0
    2.4700    1.0000    1.0000 C   0  0  0  0  0  0  0  0  0  0  0  0
    1.0000    1.0000    1.0000 N   0  0  0  0  0  0  0  0  0  0  0  0
    0.3150    1.0000    2.1865 C   0  0  0  0  0  0  0  0  0  0  0  0
    0.9150    1.0000    3.2257 O   0  0  0  0  0  0  0  0  0  0  0  0
   -1.2050    1.0000    2.1865 C   0  0  0  0  0  0  0  0  0  0  0  0
   -1.7117   -0.4331    2.1865 C   0  0  0  0  0  0  0  0  0  0  0  0
   -3.2317   -0.4331    2.1865 C   0  0  0  0  0  0  0  0  0  0  0  0
   -1.2050   -1.1496    0.9454 C   0  0  0  0  0  0  0  0  0  0  0  0
    2.9767    1.7165   -0.2411 C   0  0  0  0  0  0  0  0  0  0  0  0
    4.4967    1.7165   -0.2411 C   0  0  0  0  0  0  0  0  0  0  0  0
    5.1811    1.1110   -1.2898 C   0  0  0  0  0  0  0  0  0  0  0  0
    6.5719    1.1093   -1.2944 C   0  0  0  0  0  0  0  0  0  0  0  0
    7.2616    1.7145   -0.2486 C   0  0  0  0  0  0  0  0  0  0  0  0
    8.6114    1.7148   -0.2489 O   0  0  0  0  0  0  0  0  0  0  0  0
    6.5820    2.3212    0.8028 C   0  0  0  0  0  0  0  0  0  0  0  0
    5.1912    2.3204    0.8021 C   0  0  0  0  0  0  0  0  0  0  0  0
    2.1573   -3.2660   -0.3248 C   0  0  0  0  0  0  0  0  0  0  0  0
    2.3021   -4.7683   -0.1118 C   0  0  0  0  0  0  0  0  0  0  0  0
  1  2  1  0
  2  3  1  0
  2  4  1  0
  4  5  1  0
  5  2  1  0
  5  6  1  0
  6  7  1  0
  7  8  1  0
  8  9  1  0
  9 10  1  0
 10 11  2  0
 10 12  1  0
 12 13  1  0
 13 14  1  0
 14 15  2  0
 14 16  1  0
 16 17  1  0
 17 18  1  0
 17 19  1  0
 12 20  1  0
 20 21  1  0
 21 22  2  0
 22 23  1  0
 23 24  2  0
 24 25  1  0
 24 26  1  0
 26 27  2  0
 27 21  1  0
  8 28  1  0
 28 29  1  0
 29  4  1  0
M  END
$$$$
s_22____12432936____17513450
     RDKit          3D

 24 25  0  0  0  0  0  0  0  0999 V2000
    1.4266    2.8740    2.3713 O   0  0  0  0  0  0  0  0  0  0  0  0
    1.8776    1.8776    1.8776 C   0  0  0  0  0  0  0  0  0  0  0  0
    3.2110    1.5236    2.1096 N   0  0  0  0  0  0  0  0  0  0  0  0
    4.2214    2.5859    2.2469 C   0  0  0  0  0  0  0  0  0  0  0  0
    5.5489    2.1608    1.6387 C   0  0  0  0  0  0  0  0  0  0  0  0
    5.9799    0.7991    2.1617 C   0  0  0  0  0  0  0  0  0  0  0  0
    4.9433   -0.2150    1.6967 C   0  0  0  0  0  0  0  0  0  0  0  0
    5.2936   -1.5194    2.1346 O   0  0  0  0  0  0  0  0  0  0  0  0
    6.4941   -1.4585    2.8906 C   0  0  0  0  0  0  0  0  0  0  0  0
    3.5478    0.0939    2.2206 C   0  0  0  0  0  0  0  0  0  0  0  0
    3.8037    3.8866    1.5802 C   0  0  0  0  0  0  0  0  0  0  0  0
    1.0000    1.0000    1.0000 C   0  0  0  0  0  0  0  0  0  0  0  0
   -0.2629    0.7171    1.6971 N   0  0  0  0  0  0  0  0  0  0  0  0
   -0.6150   -0.5766    1.9787 C   0  0  0  0  0  0  0  0  0  0  0  0
    0.1075   -1.4788    1.6563 O   0  0  0  0  0  0  0  0  0  0  0  0
   -1.9209   -0.8691    2.6995 C   0  0  0  0  0  0  0  0  0  0  0  0
    0.7075    1.7208   -0.3059 C   0  0  0  0  0  0  0  0  0  0  0  0
    0.5195    0.7004   -1.4167 C   0  0  0  0  0  0  0  0  0  0  0  0
    1.6207    0.2852   -2.1582 C   0  0  0  0  0  0  0  0  0  0  0  0
    1.4536   -0.6488   -3.1751 C   0  0  0  0  0  0  0  0  0  0  0  0
    0.1851   -1.1568   -3.4375 C   0  0  0  0  0  0  0  0  0  0  0  0
    0.0184   -2.0632   -4.4238 O   0  0  0  0  0  0  0  0  0  0  0  0
   -0.9195   -0.7446   -2.6992 C   0  0  0  0  0  0  0  0  0  0  0  0
   -0.7466    0.1893   -1.6832 C   0  0  0  0  0  0  0  0  0  0  0  0
  1  2  2  0
  2  3  1  0
  3  4  1  0
  4  5  1  0
  5  6  1  0
  6  7  1  0
  7  8  1  0
  8  9  1  0
  7 10  1  0
 10  3  1  0
  4 11  1  0
  2 12  1  0
 12 13  1  0
 13 14  1  0
 14 15  2  0
 14 16  1  0
 12 17  1  0
 17 18  1  0
 18 19  2  0
 19 20  1  0
 20 21  2  0
 21 22  1  0
 21 23  1  0
 23 24  2  0
 24 18  1  0
M  END
$$$$
s_22____10811672____17513450
     RDKit          3D

 25 26  0  0  0  0  0  0  0  0999 V2000
    0.9150    1.0000    3.2257 O   0  0  0  0  0  0  0  0  0  0  0  0
    0.3150    1.0000    2.1865 C   0  0  0  0  0  0  0  0  0  0  0  0
    1.0000    1.0000    1.0000 N   0  0  0  0  0  0  0  0  0  0  0  0
    2.4700    1.0000    1.0000 C   0  0  0  0  0  0  0  0  0  0  0  0
    2.9765    1.0000   -0.4327 C   0  0  0  0  0  0  0  0  0  0  0  0
    2.4564   -0.2500   -1.1264 C   0  0  0  0  0  0  0  0  0  0  0  0
    2.9631   -1.4829   -0.3960 C   0  0  0  0  0  0  0  0  0  0  0  0
    2.1185   -2.3266    0.1186 C   0  0  0  0  0  0  0  0  0  0  0  0
    4.4898    1.1108   -0.4807 C   0  0  0  0  0  0  0  0  0  0  0  0
    4.8017    1.5790   -1.8886 C   0  0  0  0  0  0  0  0  0  0  0  0
    3.5679    2.3429   -2.3347 C   0  0  0  0  0  0  0  0  0  0  0  0
    2.6282    2.2920   -1.1480 C   0  0  0  0  0  0  0  0  0  0  0  0
   -1.2050    1.0000    2.1865 C   0  0  0  0  0  0  0  0  0  0  0  0
   -1.6950    1.0000    3.5724 N   0  0  0  0  0  0  0  0  0  0  0  0
   -2.4826    2.0275    4.0205 C   0  0  0  0  0  0  0  0  0  0  0  0
   -2.7725    2.9275    3.2816 O   0  0  0  0  0  0  0  0  0  0  0  0
   -2.9893    2.0275    5.4535 C   0  0  0  0  0  0  0  0  0  0  0  0
   -1.7117   -0.2411    1.4699 C   0  0  0  0  0  0  0  0  0  0  0  0
   -3.2317   -0.2411    1.4699 C   0  0  0  0  0  0  0  0  0  0  0  0
   -3.9161    0.3644    0.4212 C   0  0  0  0  0  0  0  0  0  0  0  0
   -5.3069    0.3662    0.4166 C   0  0  0  0  0  0  0  0  0  0  0  0
   -5.9966   -0.2391    1.4624 C   0  0  0  0  0  0  0  0  0  0  0  0
   -7.3464   -0.2393    1.4621 O   0  0  0  0  0  0  0  0  0  0  0  0
   -5.3170   -0.8457    2.5138 C   0  0  0  0  0  0  0  0  0  0  0  0
   -3.9262   -0.8449    2.5131 C   0  0  0  0  0  0  0  0  0  0  0  0
  1  2  2  0
  2  3  1  0
  3  4  1  0
  4  5  1  0
  5  6  1  0
  6  7  1  0
  7  8  2  0
  5  9  1  0
  9 10  1  0
 10 11  1  0
 11 12  1  0
 12  5  1  0
  2 13  1  0
 13 14  1  0
 14 15  1  0
 15 16  2  0
 15 17  1  0
 13 18  1  0
 18 19  1  0
 19 20  2  0
 20 21  1  0
 21 22  2  0
 22 23  1  0
 22 24  1  0
 24 25  2  0
 25 19  1  0
M  END
$$$$
s_240690a____16537608____17057130
     RDKit          3D

 28 30  0  0  0  0  0  0  0  0999 V2000
   -0.3868    1.6571   -0.7943 O   0  0  0  0  0  0  0  0  0  0  0  0
    0.7075    1.7208   -0.3059 C   0  0  0  0  0  0  0  0  0  0  0  0
    1.6931    2.4433   -0.9252 N   0  0  0  0  0  0  0  0  0  0  0  0
    1.4100    3.1407   -2.1888 C   0  0  0  0  0  0  0  0  0  0  0  0
    2.2750    2.6873   -3.3480 C   0  0  0  0  0  0  0  0  0  0  0  0
    2.3553    4.1293   -3.7859 C   0  0  0  0  0  0  0  0  0  0  0  0
    2.1755    4.4258   -2.3150 C   0  0  0  0  0  0  0  0  0  0  0  0
    3.5360    4.6145   -4.6064 C   0  0  0  0  0  0  0  0  0  0  0  0
    2.6224    5.6744   -5.1740 C   0  0  0  0  0  0  0  0  0  0  0  0
    2.8824    5.9614   -6.6434 C   0  0  0  0  0  0  0  0  0  0  0  0
    1.9534    6.9999   -7.1116 N   0  0  0  0  0  0  0  0  0  0  0  0
    1.5202    4.6675   -4.9350 C   0  0  0  0  0  0  0  0  0  0  0  0
    1.0000    1.0000    1.0000 C   0  0  0  0  0  0  0  0  0  0  0  0
    1.8487    1.8487    1.8487 N   0  0  0  0  0  0  0  0  0  0  0  0
    3.0831    1.4052    2.2442 C   0  0  0  0  0  0  0  0  0  0  0  0
    3.3356    0.2324    2.2193 O   0  0  0  0  0  0  0  0  0  0  0  0
    4.1329    2.3989    2.7145 C   0  0  0  0  0  0  0  0  0  0  0  0
    4.6634    1.9705    4.0729 C   0  0  0  0  0  0  0  0  0  0  0  0
    5.7132    2.9641    4.5432 C   0  0  0  0  0  0  0  0  0  0  0  0
    3.5200    1.9298    5.0736 C   0  0  0  0  0  0  0  0  0  0  0  0
   -0.3059    0.7075    1.7208 C   0  0  0  0  0  0  0  0  0  0  0  0
   -0.0133   -0.0134    3.0267 C   0  0  0  0  0  0  0  0  0  0  0  0
    0.0419   -1.4031    3.0438 C   0  0  0  0  0  0  0  0  0  0  0  0
    0.3100   -2.0670    4.2362 C   0  0  0  0  0  0  0  0  0  0  0  0
    0.5203   -1.3310    5.3981 C   0  0  0  0  0  0  0  0  0  0  0  0
    0.7804   -1.9713    6.5576 O   0  0  0  0  0  0  0  0  0  0  0  0
    0.4658    0.0590    5.3865 C   0  0  0  0  0  0  0  0  0  0  0  0
    0.1978    0.7176    4.1913 C   0  0  0  0  0  0  0  0  0  0  0  0
  1  2  2  0
  2  3  1  0
  3  4  1  0
  4  5  1  0
  5  6  1  0
  6  7  1  0
  7  4  1  0
  6  8  1  0
  8  9  1  0
  9 10  1  0
 10 11  1  0
  9 12  1  0
 12  6  1  0
  2 13  1  0
 13 14  1  0
 14 15  1  0
 15 16  2  0
 15 17  1  0
 17 18  1  0
 18 19  1  0
 18 20  1  0
 13 21  1  0
 21 22  1  0
 22 23  2  0
 23 24  1  0
 24 25  2  0
 25 26  1  0
 25 27  1  0
 27 28  2  0
 28 22  1  0
M  CHG  1  11   1
M  END
$$$$
s_22____13949588____17513450
     RDKit          3D

 23 23  0  0  0  0  0  0  0  0999 V2000
    0.9150    1.0000    3.2257 O   0  0  0  0  0  0  0  0  0  0  0  0
    0.3150    1.0000    2.1865 C   0  0  0  0  0  0  0  0  0  0  0  0
    1.0000    1.0000    1.0000 N   0  0  0  0  0  0  0  0  0  0  0  0
    2.4700    1.0000    1.0000 C   0  0  0  0  0  0  0  0  0  0  0  0
    2.9767    1.0000   -0.4331 C   0  0  0  0  0  0  0  0  0  0  0  0
    4.4967    1.0000   -0.4331 C   0  0  0  0  0  0  0  0  0  0  0  0
    5.0033    1.0000   -1.8661 C   0  0  0  0  0  0  0  0  0  0  0  0
    5.3833    1.0000   -2.9409 N   0  0  0  0  0  0  0  0  0  0  0  0
    5.0033    2.2411    0.2835 C   0  0  0  0  0  0  0  0  0  0  0  0
    5.0033   -0.2411    0.2835 C   0  0  0  0  0  0  0  0  0  0  0  0
   -1.2050    1.0000    2.1865 C   0  0  0  0  0  0  0  0  0  0  0  0
   -1.6950    1.0000    3.5724 N   0  0  0  0  0  0  0  0  0  0  0  0
   -2.4826    2.0275    4.0205 C   0  0  0  0  0  0  0  0  0  0  0  0
   -2.7725    2.9275    3.2816 O   0  0  0  0  0  0  0  0  0  0  0  0
   -2.9893    2.0275    5.4535 C   0  0  0  0  0  0  0  0  0  0  0  0
   -1.7117   -0.2411    1.4699 C   0  0  0  0  0  0  0  0  0  0  0  0
   -3.2317   -0.2411    1.4699 C   0  0  0  0  0  0  0  0  0  0  0  0
   -3.9161    0.3644    0.4212 C   0  0  0  0  0  0  0  0  0  0  0  0
   -5.3069    0.3662    0.4166 C   0  0  0  0  0  0  0  0  0  0  0  0
   -5.9966   -0.2391    1.4624 C   0  0  0  0  0  0  0  0  0  0  0  0
   -7.3464   -0.2393    1.4621 O   0  0  0  0  0  0  0  0  0  0  0  0
   -5.3170   -0.8457    2.5138 C   0  0  0  0  0  0  0  0  0  0  0  0
   -3.9262   -0.8449    2.5131 C   0  0  0  0  0  0  0  0  0  0  0  0
  1  2  2  0
  2  3  1  0
  3  4  1  0
  4  5  1  0
  5  6  1  0
  6  7  1  0
  7  8  3  0
  6  9  1  0
  6 10  1  0
  2 11  1  0
 11 12  1  0
 12 13  1  0
 13 14  2  0
 13 15  1  0
 11 16  1  0
 16 17  1  0
 17 18  2  0
 18 19  1  0
 19 20  2  0
 20 21  1  0
 20 22  1  0
 22 23  2  0
 23 17  1  0
M  END
$$$$
s_22____15429360____3003738
     RDKit          3D

 26 28  0  0  0  0  0  0  0  0999 V2000
    0.6964    4.5301   -0.0258 F   0  0  0  0  0  0  0  0  0  0  0  0
   -0.4895    3.9291   -0.0228 C   0  0  0  0  0  0  0  0  0  0  0  0
   -0.5605    2.5464   -0.1561 C   0  0  0  0  0  0  0  0  0  0  0  0
   -1.8028    1.9190   -0.1515 C   0  0  0  0  0  0  0  0  0  0  0  0
   -1.8712    0.5968   -0.2788 F   0  0  0  0  0  0  0  0  0  0  0  0
   -2.9687    2.6659   -0.0149 C   0  0  0  0  0  0  0  0  0  0  0  0
   -2.8808    4.0478    0.1177 C   0  0  0  0  0  0  0  0  0  0  0  0
   -1.6462    4.6889    0.1149 C   0  0  0  0  0  0  0  0  0  0  0  0
    0.7075    1.7208   -0.3059 C   0  0  0  0  0  0  0  0  0  0  0  0
    0.5256    0.7340   -1.3802 N   0  0  0  0  0  0  0  0  0  0  0  0
    1.3520    0.7509   -2.4728 C   0  0  0  0  0  0  0  0  0  0  0  0
    2.2242    1.5711   -2.5528 O   0  0  0  0  0  0  0  0  0  0  0  0
    1.1640   -0.2695   -3.5836 C   0  0  0  0  0  0  0  0  0  0  0  0
    1.0000    1.0000    1.0000 C   0  0  0  0  0  0  0  0  0  0  0  0
    1.8776    1.8776    1.8776 C   0  0  0  0  0  0  0  0  0  0  0  0
    2.7107    2.5826    1.3787 O   0  0  0  0  0  0  0  0  0  0  0  0
    1.7174    1.8637    3.2381 N   0  0  0  0  0  0  0  0  0  0  0  0
    2.5666    2.7128    4.0873 C   0  0  0  0  0  0  0  0  0  0  0  0
    3.3995    1.9405    5.0909 C   0  0  0  0  0  0  0  0  0  0  0  0
    3.1148    3.0335    6.0918 C   0  0  0  0  0  0  0  0  0  0  0  0
    1.8397    3.2140    5.3011 C   0  0  0  0  0  0  0  0  0  0  0  0
    3.1505    2.7361    7.5795 C   0  0  0  0  0  0  0  0  0  0  0  0
    3.5019    4.1888    7.7951 C   0  0  0  0  0  0  0  0  0  0  0  0
    4.4967    4.4006    8.9240 C   0  0  0  0  0  0  0  0  0  0  0  0
    3.9484    3.9063   10.1370 O   0  0  0  0  0  0  0  0  0  0  0  0
    4.1406    4.1024    6.4275 C   0  0  0  0  0  0  0  0  0  0  0  0
  1  2  1  0
  2  3  2  0
  3  4  1  0
  4  5  1  0
  4  6  2  0
  6  7  1  0
  7  8  2  0
  8  2  1  0
  3  9  1  0
  9 10  1  0
 10 11  1  0
 11 12  2  0
 11 13  1  0
  9 14  1  0
 14 15  1  0
 15 16  2  0
 15 17  1  0
 17 18  1  0
 18 19  1  0
 19 20  1  0
 20 21  1  0
 21 18  1  0
 20 22  1  0
 22 23  1  0
 23 24  1  0
 24 25  1  0
 23 26  1  0
 26 20  1  0
M  END
$$$$
s_11a____15106604____9438614
     RDKit          3D

 25 27  0  0  0  0  0  0  0  0999 V2000
   -4.3042    0.2759   -1.7519 Br  0  0  0  0  0  0  0  0  0  0  0  0
   -2.3532    0.1437   -1.8827 C   0  0  0  0  0  0  0  0  0  0  0  0
   -1.5537    0.9483   -1.0783 C   0  0  0  0  0  0  0  0  0  0  0  0
   -0.1702    0.8431   -1.1836 C   0  0  0  0  0  0  0  0  0  0  0  0
    0.4143   -0.0494   -2.0758 C   0  0  0  0  0  0  0  0  0  0  0  0
   -0.4041   -0.8445   -2.8714 C   0  0  0  0  0  0  0  0  0  0  0  0
   -1.7893   -0.7551   -2.7819 C   0  0  0  0  0  0  0  0  0  0  0  0
    0.7075    1.7208   -0.3059 C   0  0  0  0  0  0  0  0  0  0  0  0
    1.0000    1.0000    1.0000 C   0  0  0  0  0  0  0  0  0  0  0  0
    1.8487    1.8487    1.8487 N   0  0  0  0  0  0  0  0  0  0  0  0
    3.0831    1.4052    2.2442 C   0  0  0  0  0  0  0  0  0  0  0  0
    3.4716    0.3240    1.8978 O   0  0  0  0  0  0  0  0  0  0  0  0
    3.9624    2.2845    3.1234 C   0  0  0  0  0  0  0  0  0  0  0  0
    3.2582    2.5886    4.4359 C   0  0  0  0  0  0  0  0  0  0  0  0
    4.1289    3.4836    5.3031 C   0  0  0  0  0  0  0  0  0  0  0  0
    4.4502    4.7343    4.5997 N   0  0  0  0  0  0  0  0  0  0  0  0
    5.2691    5.6107    5.4468 C   0  0  0  0  0  0  0  0  0  0  0  0
    6.5645    4.9553    5.8302 C   0  0  0  0  0  0  0  0  0  0  0  0
    5.4464    5.0508    6.8288 C   0  0  0  0  0  0  0  0  0  0  0  0
    5.1212    4.4841    3.3153 C   0  0  0  0  0  0  0  0  0  0  0  0
    4.2596    3.6022    2.4258 C   0  0  0  0  0  0  0  0  0  0  0  0
   -0.3059    0.7075    1.7208 C   0  0  0  0  0  0  0  0  0  0  0  0
   -0.7943   -0.3868    1.6571 O   0  0  0  0  0  0  0  0  0  0  0  0
   -0.8981    1.6499    2.4116 O   0  0  0  0  0  0  0  0  0  0  0  0
   -2.1180    1.3766    3.0850 C   0  0  0  0  0  0  0  0  0  0  0  0
  1  2  1  0
  2  3  2  0
  3  4  1  0
  4  5  2  0
  5  6  1  0
  6  7  2  0
  7  2  1  0
  4  8  1  0
  8  9  1  0
  9 10  1  0
 10 11  1  0
 11 12  2  0
 11 13  1  0
 13 14  1  0
 14 15  1  0
 15 16  1  0
 16 17  1  0
 17 18  1  0
 18 19  1  0
 19 17  1  0
 16 20  1  0
 20 21  1  0
 21 13  1  0
  9 22  1  0
 22 23  2  0
 22 24  1  0
 24 25  1  0
M  CHG  1  16   1
M  END
$$$$
s_512____7142870____13941176
     RDKit          3D

 24 25  0  0  0  0  0  0  0  0999 V2000
    6.5901   -0.6064   -3.9522 Cl  0  0  0  0  0  0  0  0  0  0  0  0
    5.5674   -0.5069   -2.4989 C   0  0  0  0  0  0  0  0  0  0  0  0
    5.6109    0.6296   -1.6990 C   0  0  0  0  0  0  0  0  0  0  0  0
    4.8137    0.7112   -0.5618 C   0  0  0  0  0  0  0  0  0  0  0  0
    3.9785   -0.3535   -0.2406 C   0  0  0  0  0  0  0  0  0  0  0  0
    3.9349   -1.4903   -1.0400 C   0  0  0  0  0  0  0  0  0  0  0  0
    4.7323   -1.5720   -2.1774 C   0  0  0  0  0  0  0  0  0  0  0  0
    3.1050   -0.2731    1.0000 C   0  0  0  0  0  0  0  0  0  0  0  0
    2.3700    1.0000    1.0000 N   0  0  0  0  0  0  0  0  0  0  0  0
    1.0000    1.0000    1.0000 C   0  0  0  0  0  0  0  0  0  0  0  0
    0.4000   -0.0392    1.0000 O   0  0  0  0  0  0  0  0  0  0  0  0
    0.3150    2.1865    1.0000 N   0  0  0  0  0  0  0  0  0  0  0  0
   -1.1548    2.1865    1.0000 C   0  0  0  0  0  0  0  0  0  0  0  0
   -1.6718    2.9013   -0.2382 C   0  0  0  0  0  0  0  0  0  0  0  0
   -3.1920    2.9190   -0.2393 C   0  0  0  0  0  0  0  0  0  0  0  0
   -3.7068    3.6138    1.0110 C   0  0  0  0  0  0  0  0  0  0  0  0
   -5.2269    3.6218    1.0093 C   0  0  0  0  0  0  0  0  0  0  0  0
   -5.7283    4.3635   -0.2191 C   0  0  0  0  0  0  0  0  0  0  0  0
   -5.7411    2.1917    0.9827 C   0  0  0  0  0  0  0  0  0  0  0  0
   -3.1898    2.9038    2.2517 C   0  0  0  0  0  0  0  0  0  0  0  0
   -1.6697    2.8913    2.2446 C   0  0  0  0  0  0  0  0  0  0  0  0
    3.9789   -0.3536    2.2411 C   0  0  0  0  0  0  0  0  0  0  0  0
    5.0852   -0.8125    2.1672 O   0  0  0  0  0  0  0  0  0  0  0  0
    3.5034    0.0977    3.4441 N   0  0  0  0  0  0  0  0  0  0  0  0
  1  2  1  0
  2  3  2  0
  3  4  1  0
  4  5  2  0
  5  6  1  0
  6  7  2  0
  7  2  1  0
  5  8  1  0
  8  9  1  0
  9 10  1  0
 10 11  2  0
 10 12  1  0
 12 13  1  0
 13 14  1  0
 14 15  1  0
 15 16  1  0
 16 17  1  0
 17 18  1  0
 17 19  1  0
 16 20  1  0
 20 21  1  0
 21 13  1  0
  8 22  1  0
 22 23  2  0
 22 24  1  0
M  END
$$$$
s_22____10971288____17318518
     RDKit          3D

 28 29  0  0  0  0  0  0  0  0999 V2000
   -2.8437   -2.6207    2.1885 Br  0  0  0  0  0  0  0  0  0  0  0  0
   -2.0512   -0.8314    2.2953 C   0  0  0  0  0  0  0  0  0  0  0  0
   -0.8563   -0.5677    1.6347 C   0  0  0  0  0  0  0  0  0  0  0  0
   -0.3061    0.7074    1.7209 C   0  0  0  0  0  0  0  0  0  0  0  0
   -0.9328    1.7098    2.4535 C   0  0  0  0  0  0  0  0  0  0  0  0
   -2.1271    1.4243    3.1070 C   0  0  0  0  0  0  0  0  0  0  0  0
   -2.6941    0.1563    3.0338 C   0  0  0  0  0  0  0  0  0  0  0  0
    1.0000    1.0000    1.0000 C   0  0  0  0  0  0  0  0  0  0  0  0
    1.8487    1.8487    1.8487 N   0  0  0  0  0  0  0  0  0  0  0  0
    3.0831    1.4052    2.2442 C   0  0  0  0  0  0  0  0  0  0  0  0
    3.4716    0.3240    1.8978 O   0  0  0  0  0  0  0  0  0  0  0  0
    3.8395    2.1616    3.0005 O   0  0  0  0  0  0  0  0  0  0  0  0
    5.1190    1.7019    3.4104 C   0  0  0  0  0  0  0  0  0  0  0  0
    4.9639    0.4196    4.2118 C   0  0  0  0  0  0  0  0  0  0  0  0
    5.9772    1.4330    2.1851 C   0  0  0  0  0  0  0  0  0  0  0  0
    5.7854    2.7611    4.2732 C   0  0  0  0  0  0  0  0  0  0  0  0
    0.7075    1.7208   -0.3059 C   0  0  0  0  0  0  0  0  0  0  0  0
    0.7041    1.1116   -1.3397 O   0  0  0  0  0  0  0  0  0  0  0  0
    0.4477    3.0659   -0.3025 N   0  0  0  0  0  0  0  0  0  0  0  0
    0.1647    3.7632   -1.5656 C   0  0  0  0  0  0  0  0  0  0  0  0
   -1.2103    4.3995   -1.5437 C   0  0  0  0  0  0  0  0  0  0  0  0
   -2.2643    3.4821   -2.1431 C   0  0  0  0  0  0  0  0  0  0  0  0
   -3.6197    4.1684   -2.0956 C   0  0  0  0  0  0  0  0  0  0  0  0
   -1.9039    3.1716   -3.5868 C   0  0  0  0  0  0  0  0  0  0  0  0
   -2.3229    2.1890   -1.3462 C   0  0  0  0  0  0  0  0  0  0  0  0
   -1.0124    5.6653   -2.3531 C   0  0  0  0  0  0  0  0  0  0  0  0
    0.3383    6.1653   -1.8946 C   0  0  0  0  0  0  0  0  0  0  0  0
    1.1498    4.8889   -1.8239 C   0  0  0  0  0  0  0  0  0  0  0  0
  1  2  1  0
  2  3  2  0
  3  4  1  0
  4  5  2  0
  5  6  1  0
  6  7  2  0
  7  2  1  0
  4  8  1  0
  8  9  1  0
  9 10  1  0
 10 11  2  0
 10 12  1  0
 12 13  1  0
 13 14  1  0
 13 15  1  0
 13 16  1  0
  8 17  1  0
 17 18  2  0
 17 19  1  0
 19 20  1  0
 20 21  1  0
 21 22  1  0
 22 23  1  0
 22 24  1  0
 22 25  1  0
 21 26  1  0
 26 27  1  0
 27 28  1  0
 28 20  1  0
M  END
$$$$
s_22____10544252____107332
     RDKit          3D

 25 26  0  0  0  0  0  0  0  0999 V2000
   -0.0335   -2.6021    7.8213 Cl  0  0  0  0  0  0  0  0  0  0  0  0
   -0.5358   -1.4474    6.5634 C   0  0  0  0  0  0  0  0  0  0  0  0
   -1.2702   -1.8922    5.4697 C   0  0  0  0  0  0  0  0  0  0  0  0
   -1.6642   -0.9931    4.4839 C   0  0  0  0  0  0  0  0  0  0  0  0
   -1.3151    0.3473    4.6089 C   0  0  0  0  0  0  0  0  0  0  0  0
   -0.5804    0.7925    5.7022 C   0  0  0  0  0  0  0  0  0  0  0  0
   -0.1863   -0.1067    6.6883 C   0  0  0  0  0  0  0  0  0  0  0  0
   -1.7407    1.3359    3.5365 C   0  0  0  0  0  0  0  0  0  0  0  0
   -3.2083    1.3966    3.4807 N   0  0  0  0  0  0  0  0  0  0  0  0
   -3.8542    2.5821    3.7139 C   0  0  0  0  0  0  0  0  0  0  0  0
   -3.2218    3.5709    3.9637 O   0  0  0  0  0  0  0  0  0  0  0  0
   -5.3718    2.6449    3.6563 C   0  0  0  0  0  0  0  0  0  0  0  0
   -1.2007    0.8853    2.1890 C   0  0  0  0  0  0  0  0  0  0  0  0
    0.3150    1.0000    2.1865 C   0  0  0  0  0  0  0  0  0  0  0  0
    0.9116    1.0906    3.2237 O   0  0  0  0  0  0  0  0  0  0  0  0
    1.0000    1.0000    1.0000 N   0  0  0  0  0  0  0  0  0  0  0  0
    2.4700    1.0000    1.0000 C   0  0  0  0  0  0  0  0  0  0  0  0
    2.9767    1.0000   -0.4331 C   0  0  0  0  0  0  0  0  0  0  0  0
    4.4959    1.0000   -0.4331 C   0  0  0  0  0  0  0  0  0  0  0  0
    5.0401    2.2297    0.2769 C   0  0  0  0  0  0  0  0  0  0  0  0
    4.5844    3.3996   -0.3865 O   0  0  0  0  0  0  0  0  0  0  0  0
    5.0925    4.5479    0.2765 C   0  0  0  0  0  0  0  0  0  0  0  0
    5.1654   -0.2960   -0.0111 C   0  0  0  0  0  0  0  0  0  0  0  0
    5.0896   -0.7268   -1.4552 C   0  0  0  0  0  0  0  0  0  0  0  0
    5.1480    0.7502   -1.7716 C   0  0  0  0  0  0  0  0  0  0  0  0
  1  2  1  0
  2  3  2  0
  3  4  1  0
  4  5  2  0
  5  6  1  0
  6  7  2  0
  7  2  1  0
  5  8  1  0
  8  9  1  0
  9 10  1  0
 10 11  2  0
 10 12  1  0
  8 13  1  0
 13 14  1  0
 14 15  2  0
 14 16  1  0
 16 17  1  0
 17 18  1  0
 18 19  1  0
 19 20  1  0
 20 21  1  0
 21 22  1  0
 19 23  1  0
 23 24  1  0
 24 25  1  0
 25 19  1  0
M  END
$$$$
s_512____14944764____9866152
     RDKit          3D

 25 26  0  0  0  0  0  0  0  0999 V2000
    4.9449    2.6885    4.4360 S   0  0  0  0  0  0  0  0  0  0  0  0
    4.7926    2.1429    2.8306 C   0  0  0  0  0  0  0  0  0  0  0  0
    3.5740    2.5875    2.4116 C   0  0  0  0  0  0  0  0  0  0  0  0
    2.8414    3.3207    3.3832 C   0  0  0  0  0  0  0  0  0  0  0  0
    3.4475    3.4909    4.5911 C   0  0  0  0  0  0  0  0  0  0  0  0
    3.1050    2.2731    1.0000 C   0  0  0  0  0  0  0  0  0  0  0  0
    2.3700    1.0000    1.0000 N   0  0  0  0  0  0  0  0  0  0  0  0
    1.0000    1.0000    1.0000 C   0  0  0  0  0  0  0  0  0  0  0  0
    0.4000   -0.0392    1.0000 O   0  0  0  0  0  0  0  0  0  0  0  0
    0.3150    2.1865    1.0000 N   0  0  0  0  0  0  0  0  0  0  0  0
   -1.1547    2.1865    1.0000 C   0  0  0  0  0  0  0  0  0  0  0  0
   -1.6902    2.8959   -0.2288 C   0  0  0  0  0  0  0  0  0  0  0  0
   -3.1059    3.2453    0.1654 C   0  0  0  0  0  0  0  0  0  0  0  0
   -3.6679    4.3452   -0.7189 C   0  0  0  0  0  0  0  0  0  0  0  0
   -5.0902    4.6643   -0.2883 C   0  0  0  0  0  0  0  0  0  0  0  0
   -5.6525    5.7649   -1.1732 C   0  0  0  0  0  0  0  0  0  0  0  0
   -5.9512    3.4186   -0.4203 C   0  0  0  0  0  0  0  0  0  0  0  0
   -2.9321    3.7430    1.5899 C   0  0  0  0  0  0  0  0  0  0  0  0
   -1.6950    3.0465    2.1322 C   0  0  0  0  0  0  0  0  0  0  0  0
    3.1050   -0.2731    1.0000 C   0  0  0  0  0  0  0  0  0  0  0  0
    3.3583   -0.7118   -0.4331 C   0  0  0  0  0  0  0  0  0  0  0  0
    2.0739   -0.8876   -1.1260 N   0  0  0  0  0  0  0  0  0  0  0  0
    2.0516   -1.2826   -2.4377 C   0  0  0  0  0  0  0  0  0  0  0  0
    3.0806   -1.4852   -3.0208 O   0  0  0  0  0  0  0  0  0  0  0  0
    0.7235   -1.4644   -3.1542 C   0  0  0  0  0  0  0  0  0  0  0  0
  1  2  1  0
  2  3  2  0
  3  4  1  0
  4  5  2  0
  5  1  1  0
  3  6  1  0
  6  7  1  0
  7  8  1  0
  8  9  2  0
  8 10  1  0
 10 11  1  0
 11 12  1  0
 12 13  1  0
 13 14  1  0
 14 15  1  0
 15 16  1  0
 15 17  1  0
 13 18  1  0
 18 19  1  0
 19 11  1  0
  7 20  1  0
 20 21  1  0
 21 22  1  0
 22 23  1  0
 23 24  2  0
 23 25  1  0
M  END
$$$$
s_240690b____14655660____14577254
     RDKit          3D

 22 23  0  0  0  0  0  0  0  0999 V2000
    7.2785    0.9382    3.7620 F   0  0  0  0  0  0  0  0  0  0  0  0
    6.6093    0.3642    2.7665 C   0  0  0  0  0  0  0  0  0  0  0  0
    7.3108   -0.2378    1.7262 C   0  0  0  0  0  0  0  0  0  0  0  0
    8.6613   -0.2355    1.7318 O   0  0  0  0  0  0  0  0  0  0  0  0
    6.6328   -0.8454    0.6745 C   0  0  0  0  0  0  0  0  0  0  0  0
    5.2418   -0.8446    0.6739 C   0  0  0  0  0  0  0  0  0  0  0  0
    4.5463   -0.2411    1.7165 C   0  0  0  0  0  0  0  0  0  0  0  0
    5.2188    0.3675    2.7705 C   0  0  0  0  0  0  0  0  0  0  0  0
    3.0267   -0.2411    1.7165 C   0  0  0  0  0  0  0  0  0  0  0  0
    2.5200    1.0000    1.0000 C   0  0  0  0  0  0  0  0  0  0  0  0
    3.0100    1.0000   -0.3859 N   0  0  0  0  0  0  0  0  0  0  0  0
    1.0000    1.0000    1.0000 C   0  0  0  0  0  0  0  0  0  0  0  0
    0.4000    1.0000   -0.0392 O   0  0  0  0  0  0  0  0  0  0  0  0
    0.3150    1.0000    2.1865 N   0  0  0  0  0  0  0  0  0  0  0  0
   -1.1539    1.0000    2.1865 C   0  0  0  0  0  0  0  0  0  0  0  0
   -1.7361   -0.2137    2.8872 C   0  0  0  0  0  0  0  0  0  0  0  0
   -1.6289   -1.4538    2.0156 C   0  0  0  0  0  0  0  0  0  0  0  0
   -2.2217   -2.6438    2.7525 C   0  0  0  0  0  0  0  0  0  0  0  0
   -2.3907   -1.2297    0.7195 C   0  0  0  0  0  0  0  0  0  0  0  0
   -3.1865    0.1854    3.1063 C   0  0  0  0  0  0  0  0  0  0  0  0
   -3.1816    1.7013    3.1718 C   0  0  0  0  0  0  0  0  0  0  0  0
   -1.7238    2.1082    3.0491 C   0  0  0  0  0  0  0  0  0  0  0  0
  1  2  1  0
  2  3  2  0
  3  4  1  0
  3  5  1  0
  5  6  2  0
  6  7  1  0
  7  8  2  0
  8  2  1  0
  7  9  1  0
  9 10  1  0
 10 11  1  0
 10 12  1  0
 12 13  2  0
 12 14  1  0
 14 15  1  0
 15 16  1  0
 16 17  1  0
 17 18  1  0
 17 19  1  0
 16 20  1  0
 20 21  1  0
 21 22  1  0
 22 15  1  0
M  CHG  1  11   1
M  END
$$$$
s_22____15152936____3192126
     RDKit          3D

 28 29  0  0  0  0  0  0  0  0999 V2000
   -0.1924   -1.1170   -6.2584 F   0  0  0  0  0  0  0  0  0  0  0  0
    1.0935   -1.2332   -6.5777 C   0  0  0  0  0  0  0  0  0  0  0  0
    1.5109   -0.1088   -7.1524 F   0  0  0  0  0  0  0  0  0  0  0  0
    1.9064   -1.4913   -5.3202 C   0  0  0  0  0  0  0  0  0  0  0  0
    1.7064   -0.3161   -4.3758 C   0  0  0  0  0  0  0  0  0  0  0  0
    2.7498   -0.3098   -3.2680 C   0  0  0  0  0  0  0  0  0  0  0  0
    2.3280   -1.0371   -1.9995 C   0  0  0  0  0  0  0  0  0  0  0  0
    1.4795   -0.1886   -1.1510 N   0  0  0  0  0  0  0  0  0  0  0  0
    1.8776    0.1224    0.1224 C   0  0  0  0  0  0  0  0  0  0  0  0
    2.9191   -0.2979    0.5450 O   0  0  0  0  0  0  0  0  0  0  0  0
    1.0000    1.0000    1.0000 C   0  0  0  0  0  0  0  0  0  0  0  0
    1.8776    1.8776    1.8776 C   0  0  0  0  0  0  0  0  0  0  0  0
    1.0385    2.5935    2.8494 N   0  0  0  0  0  0  0  0  0  0  0  0
    1.2401    2.4132    4.1924 C   0  0  0  0  0  0  0  0  0  0  0  0
    2.1015    1.6708    4.5755 O   0  0  0  0  0  0  0  0  0  0  0  0
    0.3725    3.1535    5.1972 C   0  0  0  0  0  0  0  0  0  0  0  0
    2.6181    2.8827    1.0098 C   0  0  0  0  0  0  0  0  0  0  0  0
    3.9722    2.7066    0.7427 C   0  0  0  0  0  0  0  0  0  0  0  0
    4.6440    1.6491    1.2466 O   0  0  0  0  0  0  0  0  0  0  0  0
    6.0504    1.5542    1.0751 C   0  0  0  0  0  0  0  0  0  0  0  0
    6.5559    0.2798    1.7314 C   0  0  0  0  0  0  0  0  0  0  0  0
    4.6500    3.6264   -0.0513 C   0  0  0  0  0  0  0  0  0  0  0  0
    3.9732    4.7221   -0.5785 C   0  0  0  0  0  0  0  0  0  0  0  0
    2.6190    4.8974   -0.3117 C   0  0  0  0  0  0  0  0  0  0  0  0
    1.9416    3.9774    0.4819 C   0  0  0  0  0  0  0  0  0  0  0  0
    1.5476   -2.3112   -2.2953 C   0  0  0  0  0  0  0  0  0  0  0  0
    2.1266   -3.1553   -3.4212 C   0  0  0  0  0  0  0  0  0  0  0  0
    1.4607   -2.8299   -4.7471 C   0  0  0  0  0  0  0  0  0  0  0  0
  1  2  1  0
  2  3  1  0
  2  4  1  0
  4  5  1  0
  5  6  1  0
  6  7  1  0
  7  8  1  0
  8  9  1  0
  9 10  2  0
  9 11  1  0
 11 12  1  0
 12 13  1  0
 13 14  1  0
 14 15  2  0
 14 16  1  0
 12 17  1  0
 17 18  2  0
 18 19  1  0
 19 20  1  0
 20 21  1  0
 18 22  1  0
 22 23  2  0
 23 24  1  0
 24 25  2  0
 25 17  1  0
  7 26  1  0
 26 27  1  0
 27 28  1  0
 28  4  1  0
M  END
$$$$
s_2708____13152144____6108024
     RDKit          3D

 25 26  0  0  0  0  0  0  0  0999 V2000
    0.9150    1.0000    3.2257 O   0  0  0  0  0  0  0  0  0  0  0  0
    0.3150    1.0000    2.1865 C   0  0  0  0  0  0  0  0  0  0  0  0
   -1.0550    1.0000    2.1865 N   0  0  0  0  0  0  0  0  0  0  0  0
   -1.7901    1.0000    3.4597 C   0  0  0  0  0  0  0  0  0  0  0  0
   -2.6556   -0.2488    3.5167 C   0  0  0  0  0  0  0  0  0  0  0  0
   -3.5194   -0.3061    4.7723 C   0  0  0  0  0  0  0  0  0  0  0  0
   -4.7128    0.6448    4.7234 C   0  0  0  0  0  0  0  0  0  0  0  0
   -4.4536    2.0273    5.3112 C   0  0  0  0  0  0  0  0  0  0  0  0
   -3.0900    2.6057    4.9509 C   0  0  0  0  0  0  0  0  0  0  0  0
   -2.6224    2.2711    3.5383 C   0  0  0  0  0  0  0  0  0  0  0  0
   -1.7450   -1.4664    3.5059 C   0  0  0  0  0  0  0  0  0  0  0  0
    1.0000    1.0000    1.0000 N   0  0  0  0  0  0  0  0  0  0  0  0
    2.4700    1.0000    1.0000 C   0  0  0  0  0  0  0  0  0  0  0  0
    2.9767   -0.4113    1.2488 C   0  0  0  0  0  0  0  0  0  0  0  0
    2.4700   -1.3325    0.1511 C   0  0  0  0  0  0  0  0  0  0  0  0
    1.7801   -2.2742    0.4289 O   0  0  0  0  0  0  0  0  0  0  0  0
    2.7865   -1.0983   -1.0984 O   0  0  0  0  0  0  0  0  0  0  0  0
    2.3131   -1.9589   -2.1240 C   0  0  0  0  0  0  0  0  0  0  0  0
    4.4967   -0.4113    1.2488 C   0  0  0  0  0  0  0  0  0  0  0  0
    5.0034   -1.8229    1.4977 C   0  0  0  0  0  0  0  0  0  0  0  0
    5.2331   -2.6725    0.4206 C   0  0  0  0  0  0  0  0  0  0  0  0
    5.6960   -3.9636    0.6528 C   0  0  0  0  0  0  0  0  0  0  0  0
    5.9270   -4.3960    1.9544 C   0  0  0  0  0  0  0  0  0  0  0  0
    5.6946   -3.5385    3.0227 C   0  0  0  0  0  0  0  0  0  0  0  0
    5.2311   -2.2453    2.8037 C   0  0  0  0  0  0  0  0  0  0  0  0
  1  2  2  0
  2  3  1  0
  3  4  1  0
  4  5  1  0
  5  6  1  0
  6  7  1  0
  7  8  1  0
  8  9  1  0
  9 10  1  0
 10  4  1  0
  5 11  1  0
  2 12  1  0
 12 13  1  0
 13 14  1  0
 14 15  1  0
 15 16  2  0
 15 17  1  0
 17 18  1  0
 14 19  1  0
 19 20  1  0
 20 21  2  0
 21 22  1  0
 22 23  2  0
 23 24  1  0
 24 25  2  0
 25 20  1  0
M  END
$$$$
s_22____15782076____17513450
     RDKit          3D

 24 25  0  0  0  0  0  0  0  0999 V2000
    0.4000    1.0000   -0.0392 O   0  0  0  0  0  0  0  0  0  0  0  0
    1.0000    1.0000    1.0000 C   0  0  0  0  0  0  0  0  0  0  0  0
    0.3150    1.0000    2.1865 N   0  0  0  0  0  0  0  0  0  0  0  0
   -1.1550    1.0000    2.1865 C   0  0  0  0  0  0  0  0  0  0  0  0
   -1.6617   -0.2411    2.9030 C   0  0  0  0  0  0  0  0  0  0  0  0
   -3.1334   -0.2411    2.9030 N   0  0  0  0  0  0  0  0  0  0  0  0
   -3.6636   -0.2411    1.5401 C   0  0  0  0  0  0  0  0  0  0  0  0
   -5.1044   -0.6697    1.7308 C   0  0  0  0  0  0  0  0  0  0  0  0
   -5.1030   -1.5236    2.9825 C   0  0  0  0  0  0  0  0  0  0  0  0
   -3.6563   -1.4988    3.4356 C   0  0  0  0  0  0  0  0  0  0  0  0
   -1.6617    2.2411    2.9030 C   0  0  0  0  0  0  0  0  0  0  0  0
    2.5200    1.0000    1.0000 C   0  0  0  0  0  0  0  0  0  0  0  0
    3.0100    1.0000   -0.3859 N   0  0  0  0  0  0  0  0  0  0  0  0
    3.7976    2.0275   -0.8340 C   0  0  0  0  0  0  0  0  0  0  0  0
    4.0875    2.9275   -0.0951 O   0  0  0  0  0  0  0  0  0  0  0  0
    4.3043    2.0275   -2.2671 C   0  0  0  0  0  0  0  0  0  0  0  0
    3.0267   -0.2411    1.7165 C   0  0  0  0  0  0  0  0  0  0  0  0
    4.5467   -0.2411    1.7165 C   0  0  0  0  0  0  0  0  0  0  0  0
    5.2311    0.3644    2.7653 C   0  0  0  0  0  0  0  0  0  0  0  0
    6.6219    0.3662    2.7699 C   0  0  0  0  0  0  0  0  0  0  0  0
    7.3116   -0.2391    1.7241 C   0  0  0  0  0  0  0  0  0  0  0  0
    8.6614   -0.2393    1.7244 O   0  0  0  0  0  0  0  0  0  0  0  0
    6.6320   -0.8457    0.6727 C   0  0  0  0  0  0  0  0  0  0  0  0
    5.2412   -0.8449    0.6734 C   0  0  0  0  0  0  0  0  0  0  0  0
  1  2  2  0
  2  3  1  0
  3  4  1  0
  4  5  1  0
  5  6  1  0
  6  7  1  0
  7  8  1  0
  8  9  1  0
  9 10  1  0
 10  6  1  0
  4 11  1  0
  2 12  1  0
 12 13  1  0
 13 14  1  0
 14 15  2  0
 14 16  1  0
 12 17  1  0
 17 18  1  0
 18 19  2  0
 19 20  1  0
 20 21  2  0
 21 22  1  0
 21 23  1  0
 23 24  2  0
 24 18  1  0
M  CHG  1   6   1
M  END
$$$$
s_22____10641974____107338
     RDKit          3D

 28 29  0  0  0  0  0  0  0  0999 V2000
   -6.0645   -0.2755    1.5973 S   0  0  0  0  0  0  0  0  0  0  0  0
   -5.4073   -0.4006    0.3221 O   0  0  0  0  0  0  0  0  0  0  0  0
   -5.9282   -1.5073    2.3305 O   0  0  0  0  0  0  0  0  0  0  0  0
   -5.3065    1.0731    2.5369 C   0  0  0  0  0  0  0  0  0  0  0  0
   -3.7979    1.0260    2.3631 C   0  0  0  0  0  0  0  0  0  0  0  0
   -3.1795    0.0172    3.3189 C   0  0  0  0  0  0  0  0  0  0  0  0
   -1.6610   -0.0148    3.2012 C   0  0  0  0  0  0  0  0  0  0  0  0
   -1.1540    1.0000    2.1865 C   0  0  0  0  0  0  0  0  0  0  0  0
    0.3150    1.0000    2.1865 N   0  0  0  0  0  0  0  0  0  0  0  0
    1.0000    1.0000    1.0000 C   0  0  0  0  0  0  0  0  0  0  0  0
    0.4000    1.0000   -0.0392 O   0  0  0  0  0  0  0  0  0  0  0  0
    2.5200    1.0000    1.0000 C   0  0  0  0  0  0  0  0  0  0  0  0
    3.0267    1.4309   -0.3667 C   0  0  0  0  0  0  0  0  0  0  0  0
    4.4967    1.4309   -0.3667 N   0  0  0  0  0  0  0  0  0  0  0  0
    5.1817    0.6294   -1.2415 C   0  0  0  0  0  0  0  0  0  0  0  0
    4.5817   -0.0727   -2.0077 O   0  0  0  0  0  0  0  0  0  0  0  0
    6.7017    0.6294   -1.2415 C   0  0  0  0  0  0  0  0  0  0  0  0
    2.5200    2.8301   -0.6769 C   0  0  0  0  0  0  0  0  0  0  0  0
    2.8191    3.8745    0.1918 C   0  0  0  0  0  0  0  0  0  0  0  0
    2.3582    5.1565   -0.0884 C   0  0  0  0  0  0  0  0  0  0  0  0
    1.6033    5.3780   -1.2359 C   0  0  0  0  0  0  0  0  0  0  0  0
    1.1538    6.6206   -1.5114 O   0  0  0  0  0  0  0  0  0  0  0  0
    0.0857    6.8019   -2.4295 C   0  0  0  0  0  0  0  0  0  0  0  0
    1.3011    4.3369   -2.1078 C   0  0  0  0  0  0  0  0  0  0  0  0
    1.7649    3.0570   -1.8230 C   0  0  0  0  0  0  0  0  0  0  0  0
   -1.6799    2.3715    2.5852 C   0  0  0  0  0  0  0  0  0  0  0  0
   -3.1997    2.3987    2.6320 C   0  0  0  0  0  0  0  0  0  0  0  0
   -7.8200    0.0816    1.3387 C   0  0  0  0  0  0  0  0  0  0  0  0
  1  2  2  0
  1  3  2  0
  1  4  1  0
  4  5  1  0
  5  6  1  0
  6  7  1  0
  7  8  1  0
  8  9  1  0
  9 10  1  0
 10 11  2  0
 10 12  1  0
 12 13  1  0
 13 14  1  0
 14 15  1  0
 15 16  2  0
 15 17  1  0
 13 18  1  0
 18 19  2  0
 19 20  1  0
 20 21  2  0
 21 22  1  0
 22 23  1  0
 21 24  1  0
 24 25  2  0
 25 18  1  0
  8 26  1  0
 26 27  1  0
 27  5  1  0
  1 28  1  0
M  END
$$$$
s_2430a____14728762____9298134
     RDKit          3D

 26 27  0  0  0  0  0  0  0  0999 V2000
   -1.9402   -1.2982    3.2819 F   0  0  0  0  0  0  0  0  0  0  0  0
   -2.6813   -0.2313    3.5815 C   0  0  0  0  0  0  0  0  0  0  0  0
   -3.6858   -0.1901    2.7100 F   0  0  0  0  0  0  0  0  0  0  0  0
   -1.7893    1.0000    3.4582 C   0  0  0  0  0  0  0  0  0  0  0  0
   -1.0550    1.0000    2.1865 N   0  0  0  0  0  0  0  0  0  0  0  0
    0.3150    1.0000    2.1865 C   0  0  0  0  0  0  0  0  0  0  0  0
    0.9150    1.0000    3.2257 O   0  0  0  0  0  0  0  0  0  0  0  0
    1.0000    1.0000    1.0000 N   0  0  0  0  0  0  0  0  0  0  0  0
    2.4700    1.0000    1.0000 C   0  0  0  0  0  0  0  0  0  0  0  0
    2.9767   -0.2411    0.2835 C   0  0  0  0  0  0  0  0  0  0  0  0
    3.9272   -0.8352    0.7118 O   0  0  0  0  0  0  0  0  0  0  0  0
    2.3481   -0.6814   -0.8514 N   0  0  0  0  0  0  0  0  0  0  0  0
    2.8381   -1.8817   -1.5444 C   0  0  0  0  0  0  0  0  0  0  0  0
    2.9767    2.2411    0.2835 C   0  0  0  0  0  0  0  0  0  0  0  0
    4.4970    2.2411    0.2835 C   0  0  0  0  0  0  0  0  0  0  0  0
    5.1860    1.6369   -0.7630 C   0  0  0  0  0  0  0  0  0  0  0  0
    6.5771    1.6384   -0.7587 C   0  0  0  0  0  0  0  0  0  0  0  0
    7.2687    2.2423    0.2862 C   0  0  0  0  0  0  0  0  0  0  0  0
    6.5699    2.8431    1.3260 C   0  0  0  0  0  0  0  0  0  0  0  0
    5.1789    2.8477    1.3335 C   0  0  0  0  0  0  0  0  0  0  0  0
   -2.4964    2.3455    3.5704 C   0  0  0  0  0  0  0  0  0  0  0  0
   -3.0316    2.6459    4.9621 C   0  0  0  0  0  0  0  0  0  0  0  0
   -2.0371    2.3481    6.0777 C   0  0  0  0  0  0  0  0  0  0  0  0
   -2.2854    1.0610    6.8589 C   0  0  0  0  0  0  0  0  0  0  0  0
   -2.1840   -0.2616    6.1038 C   0  0  0  0  0  0  0  0  0  0  0  0
   -3.2209   -0.4202    4.9958 C   0  0  0  0  0  0  0  0  0  0  0  0
  1  2  1  0
  2  3  1  0
  2  4  1  0
  4  5  1  0
  5  6  1  0
  6  7  2  0
  6  8  1  0
  8  9  1  0
  9 10  1  0
 10 11  2  0
 10 12  1  0
 12 13  1  0
  9 14  1  0
 14 15  1  0
 15 16  2  0
 16 17  1  0
 17 18  2  0
 18 19  1  0
 19 20  2  0
 20 15  1  0
  4 21  1  0
 21 22  1  0
 22 23  1  0
 23 24  1  0
 24 25  1  0
 25 26  1  0
 26  2  1  0
M  END
$$$$
s_22____15768112____17513450
     RDKit          3D

 25 27  0  0  0  0  0  0  0  0999 V2000
    3.9380    6.9475    3.6489 F   0  0  0  0  0  0  0  0  0  0  0  0
    4.6119    5.8134    3.8176 C   0  0  0  0  0  0  0  0  0  0  0  0
    4.6591    5.5142    5.1126 F   0  0  0  0  0  0  0  0  0  0  0  0
    3.9147    4.6932    3.0642 C   0  0  0  0  0  0  0  0  0  0  0  0
    4.4349    3.3371    3.5098 C   0  0  0  0  0  0  0  0  0  0  0  0
    4.3298    2.8794    2.0726 C   0  0  0  0  0  0  0  0  0  0  0  0
    3.2359    2.0689    1.5494 N   0  0  0  0  0  0  0  0  0  0  0  0
    1.8776    1.8776    1.8776 C   0  0  0  0  0  0  0  0  0  0  0  0
    1.4147    2.4076    2.8496 O   0  0  0  0  0  0  0  0  0  0  0  0
    1.0000    1.0000    1.0000 C   0  0  0  0  0  0  0  0  0  0  0  0
   -0.2629    0.7171    1.6971 N   0  0  0  0  0  0  0  0  0  0  0  0
   -0.6150   -0.5766    1.9787 C   0  0  0  0  0  0  0  0  0  0  0  0
    0.1075   -1.4788    1.6563 O   0  0  0  0  0  0  0  0  0  0  0  0
   -1.9209   -0.8691    2.6995 C   0  0  0  0  0  0  0  0  0  0  0  0
    0.7075    1.7208   -0.3059 C   0  0  0  0  0  0  0  0  0  0  0  0
    0.3370    0.7044   -1.3737 C   0  0  0  0  0  0  0  0  0  0  0  0
   -0.9955    0.3421   -1.5407 C   0  0  0  0  0  0  0  0  0  0  0  0
   -1.3392   -0.5870   -2.5170 C   0  0  0  0  0  0  0  0  0  0  0  0
   -0.3442   -1.1423   -3.3154 C   0  0  0  0  0  0  0  0  0  0  0  0
   -0.6734   -2.0446   -4.2639 O   0  0  0  0  0  0  0  0  0  0  0  0
    0.9900   -0.7836   -3.1522 C   0  0  0  0  0  0  0  0  0  0  0  0
    1.3280    0.1462   -2.1747 C   0  0  0  0  0  0  0  0  0  0  0  0
    4.1171    1.5206    0.5259 C   0  0  0  0  0  0  0  0  0  0  0  0
    5.2092    1.7705    1.5541 C   0  0  0  0  0  0  0  0  0  0  0  0
    4.5602    4.3436    1.7359 C   0  0  0  0  0  0  0  0  0  0  0  0
  1  2  1  0
  2  3  1  0
  2  4  1  0
  4  5  1  0
  5  6  1  0
  6  7  1  0
  7  8  1  0
  8  9  2  0
  8 10  1  0
 10 11  1  0
 11 12  1  0
 12 13  2  0
 12 14  1  0
 10 15  1  0
 15 16  1  0
 16 17  2  0
 17 18  1  0
 18 19  2  0
 19 20  1  0
 19 21  1  0
 21 22  2  0
 22 16  1  0
  7 23  1  0
 23 24  1  0
 24  6  1  0
  6 25  1  0
 25  4  1  0
M  END
$$$$
s_22____554418____17513450
     RDKit          3D

 23 23  0  0  0  0  0  0  0  0999 V2000
    0.4000    1.0000   -0.0392 O   0  0  0  0  0  0  0  0  0  0  0  0
    1.0000    1.0000    1.0000 C   0  0  0  0  0  0  0  0  0  0  0  0
    0.3150    1.0000    2.1865 N   0  0  0  0  0  0  0  0  0  0  0  0
   -1.0885    0.5646    2.2248 C   0  0  0  0  0  0  0  0  0  0  0  0
   -1.1823   -0.7819    2.9238 C   0  0  0  0  0  0  0  0  0  0  0  0
   -2.5293   -0.8995    3.6183 C   0  0  0  0  0  0  0  0  0  0  0  0
   -1.0417   -1.8956    1.8991 C   0  0  0  0  0  0  0  0  0  0  0  0
    0.9835    1.4354    3.4211 C   0  0  0  0  0  0  0  0  0  0  0  0
    0.7895    2.9321    3.6016 C   0  0  0  0  0  0  0  0  0  0  0  0
    1.4807    3.3824    4.8783 C   0  0  0  0  0  0  0  0  0  0  0  0
    2.5200    1.0000    1.0000 C   0  0  0  0  0  0  0  0  0  0  0  0
    3.0100    1.6930   -0.2002 N   0  0  0  0  0  0  0  0  0  0  0  0
    3.2383    3.0434   -0.1663 C   0  0  0  0  0  0  0  0  0  0  0  0
    3.0383    3.6605    0.8432 O   0  0  0  0  0  0  0  0  0  0  0  0
    3.7450    3.7599   -1.4074 C   0  0  0  0  0  0  0  0  0  0  0  0
    3.0267   -0.4331    1.0000 C   0  0  0  0  0  0  0  0  0  0  0  0
    4.5467   -0.4331    1.0000 C   0  0  0  0  0  0  0  0  0  0  0  0
    5.2311   -0.4331    2.2110 C   0  0  0  0  0  0  0  0  0  0  0  0
    6.6219   -0.4338    2.2159 C   0  0  0  0  0  0  0  0  0  0  0  0
    7.3116   -0.4351    1.0075 C   0  0  0  0  0  0  0  0  0  0  0  0
    8.7316   -0.4355    1.0077 O   0  0  0  0  0  0  0  0  0  0  0  0
    6.6320   -0.4347   -0.2063 C   0  0  0  0  0  0  0  0  0  0  0  0
    5.2412   -0.4344   -0.2053 C   0  0  0  0  0  0  0  0  0  0  0  0
  1  2  2  0
  2  3  1  0
  3  4  1  0
  4  5  1  0
  5  6  1  0
  5  7  1  0
  3  8  1  0
  8  9  1  0
  9 10  1  0
  2 11  1  0
 11 12  1  0
 12 13  1  0
 13 14  2  0
 13 15  1  0
 11 16  1  0
 16 17  1  0
 17 18  2  0
 18 19  1  0
 19 20  2  0
 20 21  1  0
 20 22  1  0
 22 23  2  0
 23 17  1  0
M  END
$$$$
s_512____10971300____13611202
     RDKit          3D

 25 26  0  0  0  0  0  0  0  0999 V2000
    6.3256   -0.5699    5.5897 F   0  0  0  0  0  0  0  0  0  0  0  0
    5.5599   -0.4980    4.5043 C   0  0  0  0  0  0  0  0  0  0  0  0
    4.2153   -0.1631    4.6269 C   0  0  0  0  0  0  0  0  0  0  0  0
    3.4205   -0.0908    3.4874 C   0  0  0  0  0  0  0  0  0  0  0  0
    3.9788   -0.3536    2.2409 C   0  0  0  0  0  0  0  0  0  0  0  0
    5.3238   -0.6873    2.1242 C   0  0  0  0  0  0  0  0  0  0  0  0
    6.1233   -0.7608    3.2599 C   0  0  0  0  0  0  0  0  0  0  0  0
    3.1050   -0.2731    1.0000 C   0  0  0  0  0  0  0  0  0  0  0  0
    2.3700    1.0000    1.0000 N   0  0  0  0  0  0  0  0  0  0  0  0
    1.0000    1.0000    1.0000 C   0  0  0  0  0  0  0  0  0  0  0  0
    0.4000   -0.0392    1.0000 O   0  0  0  0  0  0  0  0  0  0  0  0
    0.3150    2.1865    1.0000 N   0  0  0  0  0  0  0  0  0  0  0  0
   -1.1553    2.1865    1.0000 C   0  0  0  0  0  0  0  0  0  0  0  0
   -1.7028    2.8929    2.2236 C   0  0  0  0  0  0  0  0  0  0  0  0
   -1.9856    1.9186    3.3562 C   0  0  0  0  0  0  0  0  0  0  0  0
   -0.6991    1.2105    3.7484 C   0  0  0  0  0  0  0  0  0  0  0  0
   -2.5310    2.6788    4.5541 C   0  0  0  0  0  0  0  0  0  0  0  0
   -3.0093    0.8926    2.8982 C   0  0  0  0  0  0  0  0  0  0  0  0
   -2.9603    3.5563    1.6992 C   0  0  0  0  0  0  0  0  0  0  0  0
   -2.5436    4.0694    0.3399 C   0  0  0  0  0  0  0  0  0  0  0  0
   -1.7214    2.9195   -0.2027 C   0  0  0  0  0  0  0  0  0  0  0  0
    3.1050    2.2731    1.0000 C   0  0  0  0  0  0  0  0  0  0  0  0
    3.9789   -0.3536   -0.2411 C   0  0  0  0  0  0  0  0  0  0  0  0
    3.1625   -0.2784   -1.4005 O   0  0  0  0  0  0  0  0  0  0  0  0
    2.7675   -1.5864   -1.7870 C   0  0  0  0  0  0  0  0  0  0  0  0
  1  2  1  0
  2  3  2  0
  3  4  1  0
  4  5  2  0
  5  6  1  0
  6  7  2  0
  7  2  1  0
  5  8  1  0
  8  9  1  0
  9 10  1  0
 10 11  2  0
 10 12  1  0
 12 13  1  0
 13 14  1  0
 14 15  1  0
 15 16  1  0
 15 17  1  0
 15 18  1  0
 14 19  1  0
 19 20  1  0
 20 21  1  0
 21 13  1  0
  9 22  1  0
  8 23  1  0
 23 24  1  0
 24 25  1  0
M  END
$$$$
s_22____12056416____17057108
     RDKit          3D

 27 28  0  0  0  0  0  0  0  0999 V2000
    4.7893   -1.1701   -4.6874 F   0  0  0  0  0  0  0  0  0  0  0  0
    3.9005   -0.3144   -5.1842 C   0  0  0  0  0  0  0  0  0  0  0  0
    3.6109    0.7684   -4.1574 C   0  0  0  0  0  0  0  0  0  0  0  0
    2.6250    0.2398   -3.1279 C   0  0  0  0  0  0  0  0  0  0  0  0
    2.0759    1.4259   -2.3472 C   0  0  0  0  0  0  0  0  0  0  0  0
    0.9068    1.0659   -1.5264 N   0  0  0  0  0  0  0  0  0  0  0  0
    0.7075    1.7208   -0.3059 C   0  0  0  0  0  0  0  0  0  0  0  0
    0.3056    2.8514   -0.2902 O   0  0  0  0  0  0  0  0  0  0  0  0
    1.0000    1.0000    1.0000 C   0  0  0  0  0  0  0  0  0  0  0  0
    1.8487    1.8487    1.8487 N   0  0  0  0  0  0  0  0  0  0  0  0
    3.0831    1.4052    2.2442 C   0  0  0  0  0  0  0  0  0  0  0  0
    3.3670    0.2444    2.1351 O   0  0  0  0  0  0  0  0  0  0  0  0
    4.0932    2.3836    2.8212 C   0  0  0  0  0  0  0  0  0  0  0  0
    4.2718    2.1109    4.3058 C   0  0  0  0  0  0  0  0  0  0  0  0
    5.2819    3.0892    4.8827 C   0  0  0  0  0  0  0  0  0  0  0  0
    2.9389    2.2810    5.0161 C   0  0  0  0  0  0  0  0  0  0  0  0
   -0.3059    0.7075    1.7208 C   0  0  0  0  0  0  0  0  0  0  0  0
   -0.1561   -0.5602    2.5461 C   0  0  0  0  0  0  0  0  0  0  0  0
   -0.4624   -1.7901    1.9731 C   0  0  0  0  0  0  0  0  0  0  0  0
   -0.3262   -2.9527    2.7243 C   0  0  0  0  0  0  0  0  0  0  0  0
    0.1159   -2.8702    4.0409 C   0  0  0  0  0  0  0  0  0  0  0  0
    0.2492   -3.9960    4.7736 O   0  0  0  0  0  0  0  0  0  0  0  0
    0.4233   -1.6427    4.6189 C   0  0  0  0  0  0  0  0  0  0  0  0
    0.2856   -0.4834    3.8630 C   0  0  0  0  0  0  0  0  0  0  0  0
   -0.0664    0.0378   -1.9315 C   0  0  0  0  0  0  0  0  0  0  0  0
    0.5948   -1.0887   -2.7139 C   0  0  0  0  0  0  0  0  0  0  0  0
    1.5297   -0.5764   -3.8017 C   0  0  0  0  0  0  0  0  0  0  0  0
  1  2  1  0
  2  3  1  0
  3  4  1  0
  4  5  1  0
  5  6  1  0
  6  7  1  0
  7  8  2  0
  7  9  1  0
  9 10  1  0
 10 11  1  0
 11 12  2  0
 11 13  1  0
 13 14  1  0
 14 15  1  0
 14 16  1  0
  9 17  1  0
 17 18  1  0
 18 19  2  0
 19 20  1  0
 20 21  2  0
 21 22  1  0
 21 23  1  0
 23 24  2  0
 24 18  1  0
  6 25  1  0
 25 26  1  0
 26 27  1  0
 27  4  1  0
M  END
$$$$
s_22____5531216____12900018
     RDKit          3D

 22 23  0  0  0  0  0  0  0  0999 V2000
    3.0383    3.2257   -0.4661 O   0  0  0  0  0  0  0  0  0  0  0  0
    3.2383    2.1865   -1.0318 C   0  0  0  0  0  0  0  0  0  0  0  0
    3.0100    1.0000   -0.3859 N   0  0  0  0  0  0  0  0  0  0  0  0
    3.2434   -0.2126   -1.0460 C   0  0  0  0  0  0  0  0  0  0  0  0
    2.2184   -0.8090   -1.7736 C   0  0  0  0  0  0  0  0  0  0  0  0
    2.4541   -2.0135   -2.4281 C   0  0  0  0  0  0  0  0  0  0  0  0
    3.7069   -2.6126   -2.3521 C   0  0  0  0  0  0  0  0  0  0  0  0
    4.7243   -2.0071   -1.6223 C   0  0  0  0  0  0  0  0  0  0  0  0
    4.5003   -0.8027   -0.9635 C   0  0  0  0  0  0  0  0  0  0  0  0
    2.5200    1.0000    1.0000 C   0  0  0  0  0  0  0  0  0  0  0  0
    1.0000    1.0000    1.0000 C   0  0  0  0  0  0  0  0  0  0  0  0
    0.4000    1.0000   -0.0392 O   0  0  0  0  0  0  0  0  0  0  0  0
    0.3150    1.0000    2.1865 N   0  0  0  0  0  0  0  0  0  0  0  0
   -1.1547    1.0000    2.1865 C   0  0  0  0  0  0  0  0  0  0  0  0
   -1.6725   -0.2380    2.9012 C   0  0  0  0  0  0  0  0  0  0  0  0
   -3.1925   -0.2431    2.9121 C   0  0  0  0  0  0  0  0  0  0  0  0
   -3.7105    1.0080    3.6033 C   0  0  0  0  0  0  0  0  0  0  0  0
   -3.1939    2.2478    2.8911 C   0  0  0  0  0  0  0  0  0  0  0  0
   -1.6737    2.2469    2.8849 C   0  0  0  0  0  0  0  0  0  0  0  0
   -3.7057   -1.4823    3.6266 C   0  0  0  0  0  0  0  0  0  0  0  0
   -3.2080   -2.7250    2.9066 C   0  0  0  0  0  0  0  0  0  0  0  0
    3.7450    2.1865   -2.4648 C   0  0  0  0  0  0  0  0  0  0  0  0
  1  2  2  0
  2  3  1  0
  3  4  1  0
  4  5  2  0
  5  6  1  0
  6  7  2  0
  7  8  1  0
  8  9  2  0
  9  4  1  0
  3 10  1  0
 10 11  1  0
 11 12  2  0
 11 13  1  0
 13 14  1  0
 14 15  1  0
 15 16  1  0
 16 17  1  0
 17 18  1  0
 18 19  1  0
 19 14  1  0
 16 20  1  0
 20 21  1  0
  2 22  1  0
M  END
$$$$
s_22____9163312____1291058
     RDKit          3D

 22 23  0  0  0  0  0  0  0  0999 V2000
    6.5447    0.9816    1.0109 F   0  0  0  0  0  0  0  0  0  0  0  0
    5.2146    0.9911    1.0050 C   0  0  0  0  0  0  0  0  0  0  0  0
    4.5168   -0.0222    1.6522 C   0  0  0  0  0  0  0  0  0  0  0  0
    5.2143   -1.0448    2.3052 N   0  0  0  0  0  0  0  0  0  0  0  0
    4.5621   -2.1919    2.6735 C   0  0  0  0  0  0  0  0  0  0  0  0
    3.6276   -2.5837    2.0305 O   0  0  0  0  0  0  0  0  0  0  0  0
    5.0220   -2.9684    3.8965 C   0  0  0  0  0  0  0  0  0  0  0  0
    3.1259   -0.0254    1.6545 C   0  0  0  0  0  0  0  0  0  0  0  0
    2.4503    1.0000    1.0000 C   0  0  0  0  0  0  0  0  0  0  0  0
    3.1462    2.0157    0.3518 C   0  0  0  0  0  0  0  0  0  0  0  0
    4.5371    2.0154    0.3515 C   0  0  0  0  0  0  0  0  0  0  0  0
    1.0000    1.0000    1.0000 C   0  0  0  0  0  0  0  0  0  0  0  0
    0.4000   -0.0383    0.9556 O   0  0  0  0  0  0  0  0  0  0  0  0
    0.3150    2.1854    1.0507 N   0  0  0  0  0  0  0  0  0  0  0  0
   -1.1546    2.1854    1.0507 C   0  0  0  0  0  0  0  0  0  0  0  0
   -1.7105    2.9455   -0.1447 C   0  0  0  0  0  0  0  0  0  0  0  0
   -1.7514    4.4565    0.0315 C   0  0  0  0  0  0  0  0  0  0  0  0
   -3.0906    4.9146    0.5880 C   0  0  0  0  0  0  0  0  0  0  0  0
   -3.2753    4.6297    2.0723 C   0  0  0  0  0  0  0  0  0  0  0  0
   -3.0821    3.1637    2.4204 C   0  0  0  0  0  0  0  0  0  0  0  0
   -1.6104    2.7794    2.3770 C   0  0  0  0  0  0  0  0  0  0  0  0
   -3.1983    6.4171    0.3888 C   0  0  0  0  0  0  0  0  0  0  0  0
  1  2  1  0
  2  3  2  0
  3  4  1  0
  4  5  1  0
  5  6  2  0
  5  7  1  0
  3  8  1  0
  8  9  2  0
  9 10  1  0
 10 11  2  0
 11  2  1  0
  9 12  1  0
 12 13  2  0
 12 14  1  0
 14 15  1  0
 15 16  1  0
 16 17  1  0
 17 18  1  0
 18 19  1  0
 19 20  1  0
 20 21  1  0
 21 15  1  0
 18 22  1  0
M  END
$$$$
s_22____9106718____14260948
     RDKit          3D

 31 32  0  0  0  0  0  0  0  0999 V2000
    2.4284   -1.2362    5.5727 F   0  0  0  0  0  0  0  0  0  0  0  0
    2.9705   -0.5318    4.5839 C   0  0  0  0  0  0  0  0  0  0  0  0
    2.1661    0.2711    3.7828 C   0  0  0  0  0  0  0  0  0  0  0  0
    2.7548    1.0003    2.7548 C   0  0  0  0  0  0  0  0  0  0  0  0
    4.1249    0.9370    2.5216 C   0  0  0  0  0  0  0  0  0  0  0  0
    4.9192    0.1310    3.3306 C   0  0  0  0  0  0  0  0  0  0  0  0
    4.3418   -0.6042    4.3613 C   0  0  0  0  0  0  0  0  0  0  0  0
    1.8776    1.8776    1.8776 C   0  0  0  0  0  0  0  0  0  0  0  0
    1.0289    2.7263    2.7263 N   0  0  0  0  0  0  0  0  0  0  0  0
    1.1178    4.0905    2.6374 C   0  0  0  0  0  0  0  0  0  0  0  0
    0.4249    4.7833    3.3302 O   0  0  0  0  0  0  0  0  0  0  0  0
    1.9591    4.6386    1.7961 O   0  0  0  0  0  0  0  0  0  0  0  0
    2.0512    6.0527    1.7039 C   0  0  0  0  0  0  0  0  0  0  0  0
    3.0931    6.4257    0.6620 C   0  0  0  0  0  0  0  0  0  0  0  0
    0.7020    6.6229    1.2980 C   0  0  0  0  0  0  0  0  0  0  0  0
    2.4571    6.6229    3.0532 C   0  0  0  0  0  0  0  0  0  0  0  0
    1.0000    1.0000    1.0000 C   0  0  0  0  0  0  0  0  0  0  0  0
    1.8776    0.1224    0.1224 C   0  0  0  0  0  0  0  0  0  0  0  0
    3.0725    0.2003    0.2003 O   0  0  0  0  0  0  0  0  0  0  0  0
    1.3043   -0.7574   -0.7574 N   0  0  0  0  0  0  0  0  0  0  0  0
    2.1528   -1.6059   -1.6059 C   0  0  0  0  0  0  0  0  0  0  0  0
    1.8954   -1.3485   -3.0835 C   0  0  0  0  0  0  0  0  0  0  0  0
    0.6802   -2.0703   -3.6477 C   0  0  0  0  0  0  0  0  0  0  0  0
    1.0604   -3.4194   -4.2381 C   0  0  0  0  0  0  0  0  0  0  0  0
   -0.0962   -3.9048   -5.0958 C   0  0  0  0  0  0  0  0  0  0  0  0
   -1.3417   -4.0433   -4.2355 C   0  0  0  0  0  0  0  0  0  0  0  0
   -0.3576   -2.9026   -6.2082 C   0  0  0  0  0  0  0  0  0  0  0  0
    0.2537   -5.2543   -5.7015 C   0  0  0  0  0  0  0  0  0  0  0  0
    1.3476   -4.4930   -3.1972 C   0  0  0  0  0  0  0  0  0  0  0  0
    2.4198   -4.0798   -2.2036 C   0  0  0  0  0  0  0  0  0  0  0  0
    1.8851   -3.0535   -1.2154 C   0  0  0  0  0  0  0  0  0  0  0  0
  1  2  1  0
  2  3  2  0
  3  4  1  0
  4  5  2  0
  5  6  1  0
  6  7  2  0
  7  2  1  0
  4  8  1  0
  8  9  1  0
  9 10  1  0
 10 11  2  0
 10 12  1  0
 12 13  1  0
 13 14  1  0
 13 15  1  0
 13 16  1  0
  8 17  1  0
 17 18  1  0
 18 19  2  0
 18 20  1  0
 20 21  1  0
 21 22  1  0
 22 23  1  0
 23 24  1  0
 24 25  1  0
 25 26  1  0
 25 27  1  0
 25 28  1  0
 24 29  1  0
 29 30  1  0
 30 31  1  0
 31 21  1  0
M  END
$$$$
s_2708____9163340____861764
     RDKit          3D

 24 25  0  0  0  0  0  0  0  0999 V2000
    9.2226   -1.6511    1.4790 F   0  0  0  0  0  0  0  0  0  0  0  0
    8.7814   -0.4157    1.2597 C   0  0  0  0  0  0  0  0  0  0  0  0
    9.2257    0.0111    0.0810 F   0  0  0  0  0  0  0  0  0  0  0  0
    9.2259    0.3906    2.2195 F   0  0  0  0  0  0  0  0  0  0  0  0
    7.2613   -0.4133    1.2589 C   0  0  0  0  0  0  0  0  0  0  0  0
    6.5716   -0.2012    2.4483 C   0  0  0  0  0  0  0  0  0  0  0  0
    5.1809   -0.2009    2.4421 C   0  0  0  0  0  0  0  0  0  0  0  0
    4.4970   -0.4113    1.2488 C   0  0  0  0  0  0  0  0  0  0  0  0
    5.1877   -0.6210    0.0592 C   0  0  0  0  0  0  0  0  0  0  0  0
    6.5787   -0.6227    0.0656 C   0  0  0  0  0  0  0  0  0  0  0  0
    2.9767   -0.4113    1.2488 C   0  0  0  0  0  0  0  0  0  0  0  0
    2.4700    1.0000    1.0000 C   0  0  0  0  0  0  0  0  0  0  0  0
    1.0000    1.0000    1.0000 N   0  0  0  0  0  0  0  0  0  0  0  0
    0.3150    1.0000    2.1865 C   0  0  0  0  0  0  0  0  0  0  0  0
    0.9150    1.0000    3.2257 O   0  0  0  0  0  0  0  0  0  0  0  0
   -1.0550    1.0000    2.1865 N   0  0  0  0  0  0  0  0  0  0  0  0
   -1.7899    1.0000    3.4594 C   0  0  0  0  0  0  0  0  0  0  0  0
   -2.6844   -0.2255    3.5936 C   0  0  0  0  0  0  0  0  0  0  0  0
   -3.9814   -0.1592    2.7949 C   0  0  0  0  0  0  0  0  0  0  0  0
   -5.0986    0.3326    3.6996 C   0  0  0  0  0  0  0  0  0  0  0  0
   -5.0399    1.8295    3.9819 C   0  0  0  0  0  0  0  0  0  0  0  0
   -3.7081    2.2728    4.5731 C   0  0  0  0  0  0  0  0  0  0  0  0
   -2.5955    2.2966    3.5349 C   0  0  0  0  0  0  0  0  0  0  0  0
   -6.4298    0.0337    3.0288 C   0  0  0  0  0  0  0  0  0  0  0  0
  1  2  1  0
  2  3  1  0
  2  4  1  0
  2  5  1  0
  5  6  2  0
  6  7  1  0
  7  8  2  0
  8  9  1  0
  9 10  2  0
 10  5  1  0
  8 11  1  0
 11 12  1  0
 12 13  1  0
 13 14  1  0
 14 15  2  0
 14 16  1  0
 16 17  1  0
 17 18  1  0
 18 19  1  0
 19 20  1  0
 20 21  1  0
 21 22  1  0
 22 23  1  0
 23 17  1  0
 20 24  1  0
M  END
$$$$
s_2708____6465958____17608306
     RDKit          3D

 24 26  0  0  0  0  0  0  0  0999 V2000
    3.4716    0.3240    1.8978 O   0  0  0  0  0  0  0  0  0  0  0  0
    3.0831    1.4052    2.2442 C   0  0  0  0  0  0  0  0  0  0  0  0
    1.8487    1.8487    1.8487 N   0  0  0  0  0  0  0  0  0  0  0  0
    1.0000    1.0000    1.0000 C   0  0  0  0  0  0  0  0  0  0  0  0
    0.7075    1.7208   -0.3059 C   0  0  0  0  0  0  0  0  0  0  0  0
   -0.1124    0.9010   -1.1257 O   0  0  0  0  0  0  0  0  0  0  0  0
   -0.3856    1.5744   -2.3456 C   0  0  0  0  0  0  0  0  0  0  0  0
   -0.3059    0.7075    1.7208 C   0  0  0  0  0  0  0  0  0  0  0  0
   -0.0133   -0.0135    3.0269 C   0  0  0  0  0  0  0  0  0  0  0  0
    0.1956    0.7227    4.1885 C   0  0  0  0  0  0  0  0  0  0  0  0
    0.4639    0.0591    5.3813 C   0  0  0  0  0  0  0  0  0  0  0  0
    0.5203   -1.3305    5.4067 C   0  0  0  0  0  0  0  0  0  0  0  0
    0.3095   -2.0555    4.2404 C   0  0  0  0  0  0  0  0  0  0  0  0
    0.0410   -1.4036    3.0412 C   0  0  0  0  0  0  0  0  0  0  0  0
    3.8741    2.1962    3.0352 N   0  0  0  0  0  0  0  0  0  0  0  0
    5.1995    1.7201    3.4598 C   0  0  0  0  0  0  0  0  0  0  0  0
    6.2442    2.6973    2.9342 C   0  0  0  0  0  0  0  0  0  0  0  0
    7.6158    2.6054    3.5957 C   0  0  0  0  0  0  0  0  0  0  0  0
    7.7580    3.3989    4.8937 C   0  0  0  0  0  0  0  0  0  0  0  0
    9.1332    3.9108    5.2043 C   0  0  0  0  0  0  0  0  0  0  0  0
    8.1215    4.8138    4.5523 C   0  0  0  0  0  0  0  0  0  0  0  0
    6.8615    3.1499    6.1000 C   0  0  0  0  0  0  0  0  0  0  0  0
    5.4148    2.8531    5.7380 C   0  0  0  0  0  0  0  0  0  0  0  0
    5.2764    1.5452    4.9699 C   0  0  0  0  0  0  0  0  0  0  0  0
  1  2  2  0
  2  3  1  0
  3  4  1  0
  4  5  1  0
  5  6  1  0
  6  7  1  0
  4  8  1  0
  8  9  1  0
  9 10  2  0
 10 11  1  0
 11 12  2  0
 12 13  1  0
 13 14  2  0
 14  9  1  0
  2 15  1  0
 15 16  1  0
 16 17  1  0
 17 18  1  0
 18 19  1  0
 19 20  1  0
 20 21  1  0
 21 19  1  0
 19 22  1  0
 22 23  1  0
 23 24  1  0
 24 16  1  0
M  END
$$$$
s_22____9141774____17513450
     RDKit          3D

 28 30  0  0  0  0  0  0  0  0999 V2000
    0.4000    1.0000   -0.0392 O   0  0  0  0  0  0  0  0  0  0  0  0
    1.0000    1.0000    1.0000 C   0  0  0  0  0  0  0  0  0  0  0  0
    0.3150    1.0000    2.1865 N   0  0  0  0  0  0  0  0  0  0  0  0
   -1.1561    1.0000    2.1865 C   0  0  0  0  0  0  0  0  0  0  0  0
   -1.6526    0.2854    3.4257 C   0  0  0  0  0  0  0  0  0  0  0  0
   -2.9132    1.0575    3.7785 C   0  0  0  0  0  0  0  0  0  0  0  0
   -3.2927    0.8037    5.2279 C   0  0  0  0  0  0  0  0  0  0  0  0
   -4.6488    1.4286    5.5136 C   0  0  0  0  0  0  0  0  0  0  0  0
   -5.8035    0.8175    5.0359 C   0  0  0  0  0  0  0  0  0  0  0  0
   -7.0423    1.3931    5.2989 C   0  0  0  0  0  0  0  0  0  0  0  0
   -7.1199    2.5703    6.0357 C   0  0  0  0  0  0  0  0  0  0  0  0
   -5.9599    3.1716    6.5083 C   0  0  0  0  0  0  0  0  0  0  0  0
   -4.7151    2.6063    6.2515 C   0  0  0  0  0  0  0  0  0  0  0  0
   -2.4570    2.4831    3.5774 C   0  0  0  0  0  0  0  0  0  0  0  0
   -1.7067    2.4152    2.2641 C   0  0  0  0  0  0  0  0  0  0  0  0
    2.5200    1.0000    1.0000 C   0  0  0  0  0  0  0  0  0  0  0  0
    3.0100    1.0000   -0.3859 N   0  0  0  0  0  0  0  0  0  0  0  0
    3.7976    2.0275   -0.8340 C   0  0  0  0  0  0  0  0  0  0  0  0
    4.0875    2.9275   -0.0951 O   0  0  0  0  0  0  0  0  0  0  0  0
    4.3043    2.0275   -2.2671 C   0  0  0  0  0  0  0  0  0  0  0  0
    3.0267   -0.2411    1.7165 C   0  0  0  0  0  0  0  0  0  0  0  0
    4.5467   -0.2411    1.7165 C   0  0  0  0  0  0  0  0  0  0  0  0
    5.2311    0.3644    2.7653 C   0  0  0  0  0  0  0  0  0  0  0  0
    6.6219    0.3662    2.7699 C   0  0  0  0  0  0  0  0  0  0  0  0
    7.3116   -0.2391    1.7241 C   0  0  0  0  0  0  0  0  0  0  0  0
    8.6614   -0.2393    1.7244 O   0  0  0  0  0  0  0  0  0  0  0  0
    6.6320   -0.8457    0.6727 C   0  0  0  0  0  0  0  0  0  0  0  0
    5.2412   -0.8449    0.6734 C   0  0  0  0  0  0  0  0  0  0  0  0
  1  2  2  0
  2  3  1  0
  3  4  1  0
  4  5  1  0
  5  6  1  0
  6  7  1  0
  7  8  1  0
  8  9  2  0
  9 10  1  0
 10 11  2  0
 11 12  1  0
 12 13  2  0
 13  8  1  0
  6 14  1  0
 14 15  1  0
 15  4  1  0
  2 16  1  0
 16 17  1  0
 17 18  1  0
 18 19  2  0
 18 20  1  0
 16 21  1  0
 21 22  1  0
 22 23  2  0
 23 24  1  0
 24 25  2  0
 25 26  1  0
 25 27  1  0
 27 28  2  0
 28 22  1  0
M  END
$$$$
s_22____14524286____219891
     RDKit          3D

 25 26  0  0  0  0  0  0  0  0999 V2000
    3.8076    2.2502   -2.3506 O   0  0  0  0  0  0  0  0  0  0  0  0
    4.6793    1.9120   -1.5984 C   0  0  0  0  0  0  0  0  0  0  0  0
    4.3972    1.0643   -0.5598 N   0  0  0  0  0  0  0  0  0  0  0  0
    3.0267    0.5691   -0.3667 C   0  0  0  0  0  0  0  0  0  0  0  0
    3.0192   -0.9487   -0.4546 C   0  0  0  0  0  0  0  0  0  0  0  0
    3.7378   -1.6961    0.4728 C   0  0  0  0  0  0  0  0  0  0  0  0
    3.7289   -3.0846    0.3883 C   0  0  0  0  0  0  0  0  0  0  0  0
    3.0041   -3.7156   -0.6172 C   0  0  0  0  0  0  0  0  0  0  0  0
    2.2896   -2.9588   -1.5378 C   0  0  0  0  0  0  0  0  0  0  0  0
    2.2910   -1.5698   -1.4644 C   0  0  0  0  0  0  0  0  0  0  0  0
    2.5200    1.0000    1.0000 C   0  0  0  0  0  0  0  0  0  0  0  0
    1.0000    1.0000    1.0000 C   0  0  0  0  0  0  0  0  0  0  0  0
    0.4000    1.0000   -0.0392 O   0  0  0  0  0  0  0  0  0  0  0  0
    0.3150    1.0000    2.1865 N   0  0  0  0  0  0  0  0  0  0  0  0
   -1.1542    1.0000    2.1865 C   0  0  0  0  0  0  0  0  0  0  0  0
   -1.6622    2.2414    2.9032 C   0  0  0  0  0  0  0  0  0  0  0  0
   -3.1791    2.2217    3.0054 C   0  0  0  0  0  0  0  0  0  0  0  0
   -3.6913    0.9615    3.6882 C   0  0  0  0  0  0  0  0  0  0  0  0
   -5.1102    0.9740    3.6889 O   0  0  0  0  0  0  0  0  0  0  0  0
   -3.2525    0.8984    5.1439 C   0  0  0  0  0  0  0  0  0  0  0  0
   -3.9480    1.9973    5.9308 C   0  0  0  0  0  0  0  0  0  0  0  0
   -3.6243   -0.4552    5.7269 C   0  0  0  0  0  0  0  0  0  0  0  0
   -3.1963   -0.2426    2.9018 C   0  0  0  0  0  0  0  0  0  0  0  0
   -1.6793   -0.2921    2.7910 C   0  0  0  0  0  0  0  0  0  0  0  0
    5.9566    2.3735   -1.7783 N   0  0  0  0  0  0  0  0  0  0  0  0
  1  2  2  0
  2  3  1  0
  3  4  1  0
  4  5  1  0
  5  6  2  0
  6  7  1  0
  7  8  2  0
  8  9  1  0
  9 10  2  0
 10  5  1  0
  4 11  1  0
 11 12  1  0
 12 13  2  0
 12 14  1  0
 14 15  1  0
 15 16  1  0
 16 17  1  0
 17 18  1  0
 18 19  1  0
 18 20  1  0
 20 21  1  0
 20 22  1  0
 18 23  1  0
 23 24  1  0
 24 15  1  0
  2 25  1  0
M  END
$$$$
s_272212____13250204____11403114
     RDKit          3D

 23 25  0  0  0  0  0  0  0  0999 V2000
    5.3743    2.3475    2.4635 O   0  0  0  0  0  0  0  0  0  0  0  0
    4.1555    2.2887    2.4892 C   0  0  0  0  0  0  0  0  0  0  0  0
    3.3018    3.3939    2.5029 N   0  0  0  0  0  0  0  0  0  0  0  0
    1.9798    2.9577    2.5312 C   0  0  0  0  0  0  0  0  0  0  0  0
    0.9852    3.6651    2.5372 O   0  0  0  0  0  0  0  0  0  0  0  0
    1.9945    1.4468    2.5386 C   0  0  0  0  0  0  0  0  0  0  0  0
    3.4189    1.1018    2.5147 N   0  0  0  0  0  0  0  0  0  0  0  0
    1.2739    0.8762    1.3276 C   0  0  0  0  0  0  0  0  0  0  0  0
    1.4079   -0.6383    1.3251 C   0  0  0  0  0  0  0  0  0  0  0  0
    0.4558   -1.4218    1.9698 C   0  0  0  0  0  0  0  0  0  0  0  0
   -0.5929   -0.8536    2.6029 O   0  0  0  0  0  0  0  0  0  0  0  0
    0.5785   -2.8078    1.9677 C   0  0  0  0  0  0  0  0  0  0  0  0
    1.6531   -3.4100    1.3205 C   0  0  0  0  0  0  0  0  0  0  0  0
    2.6045   -2.6261    0.6754 C   0  0  0  0  0  0  0  0  0  0  0  0
    2.4814   -1.2404    0.6774 C   0  0  0  0  0  0  0  0  0  0  0  0
    3.7351    4.7984    2.4884 C   0  0  0  0  0  0  0  0  0  0  0  0
    3.1800    5.5011    1.2598 C   0  0  0  0  0  0  0  0  0  0  0  0
    3.6346    6.9516    1.2560 C   0  0  0  0  0  0  0  0  0  0  0  0
    3.1617    7.6611    2.5147 C   0  0  0  0  0  0  0  0  0  0  0  0
    3.7186    6.9507    3.7379 C   0  0  0  0  0  0  0  0  0  0  0  0
    3.2687    5.4986    3.7546 C   0  0  0  0  0  0  0  0  0  0  0  0
    3.6199    9.1097    2.5016 C   0  0  0  0  0  0  0  0  0  0  0  0
    5.1378    9.1605    2.4412 C   0  0  0  0  0  0  0  0  0  0  0  0
  1  2  2  0
  2  3  1  0
  3  4  1  0
  4  5  2  0
  4  6  1  0
  6  7  1  0
  7  2  1  0
  6  8  1  0
  8  9  1  0
  9 10  2  0
 10 11  1  0
 10 12  1  0
 12 13  2  0
 13 14  1  0
 14 15  2  0
 15  9  1  0
  3 16  1  0
 16 17  1  0
 17 18  1  0
 18 19  1  0
 19 20  1  0
 20 21  1  0
 21 16  1  0
 19 22  1  0
 22 23  1  0
M  END
$$$$
s_22____10971288____9736332
     RDKit          3D

 23 24  0  0  0  0  0  0  0  0999 V2000
    0.4000    1.0000   -0.0392 O   0  0  0  0  0  0  0  0  0  0  0  0
    1.0000    1.0000    1.0000 C   0  0  0  0  0  0  0  0  0  0  0  0
    0.3150    1.0000    2.1865 N   0  0  0  0  0  0  0  0  0  0  0  0
   -1.1553    1.0000    2.1865 C   0  0  0  0  0  0  0  0  0  0  0  0
   -1.7028   -0.2236    2.8929 C   0  0  0  0  0  0  0  0  0  0  0  0
   -1.9856   -1.3562    1.9186 C   0  0  0  0  0  0  0  0  0  0  0  0
   -0.6991   -1.7484    1.2105 C   0  0  0  0  0  0  0  0  0  0  0  0
   -2.5310   -2.5541    2.6788 C   0  0  0  0  0  0  0  0  0  0  0  0
   -3.0093   -0.8982    0.8926 C   0  0  0  0  0  0  0  0  0  0  0  0
   -2.9603    0.3008    3.5563 C   0  0  0  0  0  0  0  0  0  0  0  0
   -2.5436    1.6601    4.0694 C   0  0  0  0  0  0  0  0  0  0  0  0
   -1.7214    2.2027    2.9195 C   0  0  0  0  0  0  0  0  0  0  0  0
    2.5200    1.0000    1.0000 C   0  0  0  0  0  0  0  0  0  0  0  0
    3.0100    0.1091    2.0617 N   0  0  0  0  0  0  0  0  0  0  0  0
    3.7976    0.6082    3.0654 C   0  0  0  0  0  0  0  0  0  0  0  0
    4.0875    1.7726    3.0779 O   0  0  0  0  0  0  0  0  0  0  0  0
    4.3043   -0.3129    4.1632 C   0  0  0  0  0  0  0  0  0  0  0  0
    3.0267    0.5099   -0.3466 C   0  0  0  0  0  0  0  0  0  0  0  0
    4.5482    0.5099   -0.3466 C   0  0  0  0  0  0  0  0  0  0  0  0
    5.3561   -0.5205    0.0284 N   0  0  0  0  0  0  0  0  0  0  0  0
    6.6175   -0.1695   -0.1034 C   0  0  0  0  0  0  0  0  0  0  0  0
    6.6386    1.1139   -0.5768 N   0  0  0  0  0  0  0  0  0  0  0  0
    5.3513    1.5485   -0.7256 C   0  0  0  0  0  0  0  0  0  0  0  0
  1  2  2  0
  2  3  1  0
  3  4  1  0
  4  5  1  0
  5  6  1  0
  6  7  1  0
  6  8  1  0
  6  9  1  0
  5 10  1  0
 10 11  1  0
 11 12  1  0
 12  4  1  0
  2 13  1  0
 13 14  1  0
 14 15  1  0
 15 16  2  0
 15 17  1  0
 13 18  1  0
 18 19  1  0
 19 20  1  0
 20 21  2  0
 21 22  1  0
 22 23  1  0
 19 23  2  0
M  END
$$$$
m_272310____9698476____14588568
     RDKit          3D

 25 26  0  0  0  0  0  0  0  0999 V2000
    4.0547    2.7087    0.5722 O   0  0  0  0  0  0  0  0  0  0  0  0
    2.9767    2.2411    0.2835 C   0  0  0  0  0  0  0  0  0  0  0  0
    2.2797    2.7786   -0.6041 O   0  0  0  0  0  0  0  0  0  0  0  0
    2.4700    1.0000    1.0000 C   0  0  0  0  0  0  0  0  0  0  0  0
    1.0000    1.0000    1.0000 N   0  0  0  0  0  0  0  0  0  0  0  0
    0.3150    1.0000    2.1865 C   0  0  0  0  0  0  0  0  0  0  0  0
    0.9150    1.0000    3.2257 O   0  0  0  0  0  0  0  0  0  0  0  0
   -1.0550    1.0000    2.1865 N   0  0  0  0  0  0  0  0  0  0  0  0
   -1.7899    1.0000    3.4594 C   0  0  0  0  0  0  0  0  0  0  0  0
   -2.6685    2.2374    3.5524 C   0  0  0  0  0  0  0  0  0  0  0  0
   -3.4229    2.2261    4.8720 C   0  0  0  0  0  0  0  0  0  0  0  0
   -4.2791    0.9749    4.9852 C   0  0  0  0  0  0  0  0  0  0  0  0
   -3.3935   -0.2570    4.8883 C   0  0  0  0  0  0  0  0  0  0  0  0
   -2.6350   -0.2587    3.5708 C   0  0  0  0  0  0  0  0  0  0  0  0
   -5.0296    0.9728    6.3064 C   0  0  0  0  0  0  0  0  0  0  0  0
   -4.0340    1.0011    7.4546 C   0  0  0  0  0  0  0  0  0  0  0  0
    2.9767   -0.2411    0.2835 C   0  0  0  0  0  0  0  0  0  0  0  0
    4.4851   -0.3381    0.4434 C   0  0  0  0  0  0  0  0  0  0  0  0
    5.0161   -0.8889    1.6051 C   0  0  0  0  0  0  0  0  0  0  0  0
    6.3958   -0.9805    1.7555 C   0  0  0  0  0  0  0  0  0  0  0  0
    7.2281   -0.5197    0.7403 C   0  0  0  0  0  0  0  0  0  0  0  0
    8.5676   -0.6063    0.8823 O   0  0  0  0  0  0  0  0  0  0  0  0
    9.4239   -0.0429   -0.1004 C   0  0  0  0  0  0  0  0  0  0  0  0
    6.7022    0.0323   -0.4233 C   0  0  0  0  0  0  0  0  0  0  0  0
    5.3218    0.1210   -0.5687 C   0  0  0  0  0  0  0  0  0  0  0  0
  1  2  1  0
  2  3  2  0
  2  4  1  0
  4  5  1  0
  5  6  1  0
  6  7  2  0
  6  8  1  0
  8  9  1  0
  9 10  1  0
 10 11  1  0
 11 12  1  0
 12 13  1  0
 13 14  1  0
 14  9  1  0
 12 15  1  0
 15 16  1  0
  4 17  1  0
 17 18  1  0
 18 19  2  0
 19 20  1  0
 20 21  2  0
 21 22  1  0
 22 23  1  0
 21 24  1  0
 24 25  2  0
 25 18  1  0
M  CHG  1   1  -1
M  END
$$$$
s_272164____9388494____9376838
     RDKit          3D

 24 26  0  0  0  0  0  0  0  0999 V2000
    2.9700    2.0392    1.0000 O   0  0  0  0  0  0  0  0  0  0  0  0
    2.3700    1.0000    1.0000 C   0  0  0  0  0  0  0  0  0  0  0  0
    3.0703   -0.2130    1.0000 N   0  0  0  0  0  0  0  0  0  0  0  0
    4.4742   -0.2096    1.0000 C   0  0  0  0  0  0  0  0  0  0  0  0
    5.0810   -0.5368   -0.2049 C   0  0  0  0  0  0  0  0  0  0  0  0
    4.3328   -0.8704   -1.3386 N   0  0  0  0  0  0  0  0  0  0  0  0
    3.3059   -1.8086   -1.1992 C   0  0  0  0  0  0  0  0  0  0  0  0
    2.5945   -2.0945   -2.1492 O   0  0  0  0  0  0  0  0  0  0  0  0
    3.1005   -2.4428    0.1667 C   0  0  0  0  0  0  0  0  0  0  0  0
    2.2858   -1.4608    0.9894 C   0  0  0  0  0  0  0  0  0  0  0  0
    2.0276   -2.0862    2.3537 C   0  0  0  0  0  0  0  0  0  0  0  0
    6.4643   -0.5489   -0.3058 C   0  0  0  0  0  0  0  0  0  0  0  0
    7.2514   -0.2409    0.7984 C   0  0  0  0  0  0  0  0  0  0  0  0
    6.6674    0.0833    2.0183 C   0  0  0  0  0  0  0  0  0  0  0  0
    5.2780    0.0933    2.1031 C   0  0  0  0  0  0  0  0  0  0  0  0
    1.0000    1.0000    1.0000 N   0  0  0  0  0  0  0  0  0  0  0  0
    0.2649    2.2733    1.0000 C   0  0  0  0  0  0  0  0  0  0  0  0
   -0.6006    2.3303    2.2488 C   0  0  0  0  0  0  0  0  0  0  0  0
   -1.4644    3.5858    2.3061 C   0  0  0  0  0  0  0  0  0  0  0  0
   -2.6578    3.5369    1.3552 C   0  0  0  0  0  0  0  0  0  0  0  0
   -2.3986    4.1247   -0.0273 C   0  0  0  0  0  0  0  0  0  0  0  0
   -1.0350    3.7644   -0.6057 C   0  0  0  0  0  0  0  0  0  0  0  0
   -0.5674    2.3519   -0.2711 C   0  0  0  0  0  0  0  0  0  0  0  0
    0.3100    2.3195    3.4664 C   0  0  0  0  0  0  0  0  0  0  0  0
  1  2  2  0
  2  3  1  0
  3  4  1  0
  4  5  2  0
  5  6  1  0
  6  7  1  0
  7  8  2  0
  7  9  1  0
  9 10  1  0
 10  3  1  0
 10 11  1  0
  5 12  1  0
 12 13  2  0
 13 14  1  0
 14 15  2  0
 15  4  1  0
  2 16  1  0
 16 17  1  0
 17 18  1  0
 18 19  1  0
 19 20  1  0
 20 21  1  0
 21 22  1  0
 22 23  1  0
 23 17  1  0
 18 24  1  0
M  END
$$$$
s_2708____5531246____9156422
     RDKit          3D

 25 26  0  0  0  0  0  0  0  0999 V2000
    0.4000   -0.0392    1.0000 O   0  0  0  0  0  0  0  0  0  0  0  0
    1.0000    1.0000    1.0000 C   0  0  0  0  0  0  0  0  0  0  0  0
    2.3700    1.0000    1.0000 N   0  0  0  0  0  0  0  0  0  0  0  0
    3.1050    2.1963    1.4354 C   0  0  0  0  0  0  0  0  0  0  0  0
    3.3584    2.1185    2.9324 C   0  0  0  0  0  0  0  0  0  0  0  0
    4.5197    1.5154    3.4043 C   0  0  0  0  0  0  0  0  0  0  0  0
    4.7472    1.4456    4.7749 C   0  0  0  0  0  0  0  0  0  0  0  0
    3.8176    1.9776    5.6622 C   0  0  0  0  0  0  0  0  0  0  0  0
    2.6614    2.5781    5.1795 C   0  0  0  0  0  0  0  0  0  0  0  0
    2.4220    2.6536    3.8113 C   0  0  0  0  0  0  0  0  0  0  0  0
    3.1050   -0.1963    0.5646 C   0  0  0  0  0  0  0  0  0  0  0  0
    3.6270    0.0156   -0.8472 C   0  0  0  0  0  0  0  0  0  0  0  0
    4.0977    1.3485   -0.9827 O   0  0  0  0  0  0  0  0  0  0  0  0
    4.7660   -0.9539   -1.1171 C   0  0  0  0  0  0  0  0  0  0  0  0
    5.2880   -0.7420   -2.5289 C   0  0  0  0  0  0  0  0  0  0  0  0
    2.5059   -0.2295   -1.8440 C   0  0  0  0  0  0  0  0  0  0  0  0
    0.3150    2.1865    1.0000 N   0  0  0  0  0  0  0  0  0  0  0  0
   -1.1547    2.1865    1.0000 C   0  0  0  0  0  0  0  0  0  0  0  0
   -1.6725    2.1865    2.4295 C   0  0  0  0  0  0  0  0  0  0  0  0
   -3.1925    2.1933    2.4394 C   0  0  0  0  0  0  0  0  0  0  0  0
   -3.7105    3.4175    1.7014 C   0  0  0  0  0  0  0  0  0  0  0  0
   -3.1939    3.4206    0.2718 C   0  0  0  0  0  0  0  0  0  0  0  0
   -1.6737    3.4148    0.2693 C   0  0  0  0  0  0  0  0  0  0  0  0
   -3.7058    2.1925    3.8701 C   0  0  0  0  0  0  0  0  0  0  0  0
   -5.2258    2.1994    3.8631 C   0  0  0  0  0  0  0  0  0  0  0  0
  1  2  2  0
  2  3  1  0
  3  4  1  0
  4  5  1  0
  5  6  2  0
  6  7  1  0
  7  8  2  0
  8  9  1  0
  9 10  2  0
 10  5  1  0
  3 11  1  0
 11 12  1  0
 12 13  1  0
 12 14  1  0
 14 15  1  0
 12 16  1  0
  2 17  1  0
 17 18  1  0
 18 19  1  0
 19 20  1  0
 20 21  1  0
 21 22  1  0
 22 23  1  0
 23 18  1  0
 20 24  1  0
 24 25  1  0
M  END
$$$$
s_2708____17318976____9106748
     RDKit          3D

 28 29  0  0  0  0  0  0  0  0999 V2000
    2.1552   -2.8482    2.8419 F   0  0  0  0  0  0  0  0  0  0  0  0
    3.4617   -3.0252    2.6671 C   0  0  0  0  0  0  0  0  0  0  0  0
    4.2784   -1.9229    2.4366 C   0  0  0  0  0  0  0  0  0  0  0  0
    5.6474   -2.0841    2.2514 C   0  0  0  0  0  0  0  0  0  0  0  0
    6.1936   -3.3631    2.2995 C   0  0  0  0  0  0  0  0  0  0  0  0
    5.3722   -4.4615    2.5302 C   0  0  0  0  0  0  0  0  0  0  0  0
    5.8956   -5.6825    2.5757 F   0  0  0  0  0  0  0  0  0  0  0  0
    4.0030   -4.3055    2.7155 C   0  0  0  0  0  0  0  0  0  0  0  0
    3.6795   -0.5264    2.3842 C   0  0  0  0  0  0  0  0  0  0  0  0
    3.1050   -0.2731    1.0000 C   0  0  0  0  0  0  0  0  0  0  0  0
    2.3700    1.0000    1.0000 N   0  0  0  0  0  0  0  0  0  0  0  0
    1.0000    1.0000    1.0000 C   0  0  0  0  0  0  0  0  0  0  0  0
    0.4000   -0.0392    1.0000 O   0  0  0  0  0  0  0  0  0  0  0  0
    0.3150    2.1865    1.0000 N   0  0  0  0  0  0  0  0  0  0  0  0
   -1.1549    2.1865    1.0000 C   0  0  0  0  0  0  0  0  0  0  0  0
   -1.7183    2.8940   -0.2255 C   0  0  0  0  0  0  0  0  0  0  0  0
   -1.6751    4.4165   -0.1592 C   0  0  0  0  0  0  0  0  0  0  0  0
   -3.0172    4.9318    0.3326 C   0  0  0  0  0  0  0  0  0  0  0  0
   -3.1019    6.4200    0.0337 C   0  0  0  0  0  0  0  0  0  0  0  0
   -4.4383    6.9587    0.5176 C   0  0  0  0  0  0  0  0  0  0  0  0
   -1.9740    7.1454    0.7494 C   0  0  0  0  0  0  0  0  0  0  0  0
   -2.9779    6.6437   -1.4646 C   0  0  0  0  0  0  0  0  0  0  0  0
   -3.2324    4.7397    1.8295 C   0  0  0  0  0  0  0  0  0  0  0  0
   -3.0784    3.2908    2.2728 C   0  0  0  0  0  0  0  0  0  0  0  0
   -1.6231    2.8464    2.2966 C   0  0  0  0  0  0  0  0  0  0  0  0
    4.2359   -0.2052   -0.0133 C   0  0  0  0  0  0  0  0  0  0  0  0
    3.7113    0.1457   -1.2853 O   0  0  0  0  0  0  0  0  0  0  0  0
    3.3593   -1.0335   -1.9939 C   0  0  0  0  0  0  0  0  0  0  0  0
  1  2  1  0
  2  3  2  0
  3  4  1  0
  4  5  2  0
  5  6  1  0
  6  7  1  0
  6  8  2  0
  8  2  1  0
  3  9  1  0
  9 10  1  0
 10 11  1  0
 11 12  1  0
 12 13  2  0
 12 14  1  0
 14 15  1  0
 15 16  1  0
 16 17  1  0
 17 18  1  0
 18 19  1  0
 19 20  1  0
 19 21  1  0
 19 22  1  0
 18 23  1  0
 23 24  1  0
 24 25  1  0
 25 15  1  0
 10 26  1  0
 26 27  1  0
 27 28  1  0
M  END
$$$$
s_240690a____13308446____7414598
     RDKit          3D

 28 29  0  0  0  0  0  0  0  0999 V2000
    2.8740   -0.3713    0.5734 O   0  0  0  0  0  0  0  0  0  0  0  0
    1.8776    0.1224    0.1224 C   0  0  0  0  0  0  0  0  0  0  0  0
    1.5240   -0.1094   -1.2095 N   0  0  0  0  0  0  0  0  0  0  0  0
    2.4016   -0.9652   -2.0245 C   0  0  0  0  0  0  0  0  0  0  0  0
    2.4104   -0.5432   -3.4873 C   0  0  0  0  0  0  0  0  0  0  0  0
    1.0091   -0.2770   -4.0191 C   0  0  0  0  0  0  0  0  0  0  0  0
    1.1427    0.2150   -5.4514 C   0  0  0  0  0  0  0  0  0  0  0  0
   -0.2383    0.4937   -6.0222 C   0  0  0  0  0  0  0  0  0  0  0  0
   -0.1092    0.9694   -7.4071 N   0  0  0  0  0  0  0  0  0  0  0  0
    1.9672    1.4917   -5.4738 C   0  0  0  0  0  0  0  0  0  0  0  0
    1.8325   -0.8485   -6.2902 C   0  0  0  0  0  0  0  0  0  0  0  0
    0.4108    0.8618   -3.2053 C   0  0  0  0  0  0  0  0  0  0  0  0
    0.2965    0.5178   -1.7267 C   0  0  0  0  0  0  0  0  0  0  0  0
    1.0000    1.0000    1.0000 C   0  0  0  0  0  0  0  0  0  0  0  0
    1.8776    1.8776    1.8776 C   0  0  0  0  0  0  0  0  0  0  0  0
    1.0385    2.5935    2.8494 N   0  0  0  0  0  0  0  0  0  0  0  0
    1.2401    2.4132    4.1924 C   0  0  0  0  0  0  0  0  0  0  0  0
    2.1015    1.6708    4.5755 O   0  0  0  0  0  0  0  0  0  0  0  0
    0.3725    3.1535    5.1972 C   0  0  0  0  0  0  0  0  0  0  0  0
    2.6181    2.8827    1.0098 C   0  0  0  0  0  0  0  0  0  0  0  0
    3.9722    2.7066    0.7427 C   0  0  0  0  0  0  0  0  0  0  0  0
    4.6440    1.6491    1.2466 O   0  0  0  0  0  0  0  0  0  0  0  0
    6.0504    1.5542    1.0751 C   0  0  0  0  0  0  0  0  0  0  0  0
    6.5559    0.2798    1.7314 C   0  0  0  0  0  0  0  0  0  0  0  0
    4.6500    3.6264   -0.0513 C   0  0  0  0  0  0  0  0  0  0  0  0
    3.9732    4.7221   -0.5785 C   0  0  0  0  0  0  0  0  0  0  0  0
    2.6190    4.8974   -0.3117 C   0  0  0  0  0  0  0  0  0  0  0  0
    1.9416    3.9774    0.4819 C   0  0  0  0  0  0  0  0  0  0  0  0
  1  2  2  0
  2  3  1  0
  3  4  1  0
  4  5  1  0
  5  6  1  0
  6  7  1  0
  7  8  1  0
  8  9  1  0
  7 10  1  0
  7 11  1  0
  6 12  1  0
 12 13  1  0
 13  3  1  0
  2 14  1  0
 14 15  1  0
 15 16  1  0
 16 17  1  0
 17 18  2  0
 17 19  1  0
 15 20  1  0
 20 21  2  0
 21 22  1  0
 22 23  1  0
 23 24  1  0
 21 25  1  0
 25 26  2  0
 26 27  1  0
 27 28  2  0
 28 20  1  0
M  CHG  1   9   1
M  END
$$$$
s_527a____15421630____17513452
     RDKit          3D

 26 29  0  0  0  0  0  0  0  0999 V2000
   -1.0213    2.0766    0.4260 O   0  0  0  0  0  0  0  0  0  0  0  0
    0.1224    1.8776    0.1224 C   0  0  0  0  0  0  0  0  0  0  0  0
    0.6373    2.4413   -1.0152 N   0  0  0  0  0  0  0  0  0  0  0  0
   -0.2119    3.2904   -1.8643 C   0  0  0  0  0  0  0  0  0  0  0  0
   -0.3148    2.7111   -3.2495 C   0  0  0  0  0  0  0  0  0  0  0  0
   -0.3194    4.1282   -3.7714 C   0  0  0  0  0  0  0  0  0  0  0  0
    0.2753    4.3804   -5.1421 C   0  0  0  0  0  0  0  0  0  0  0  0
   -0.8885    4.2552   -6.0810 C   0  0  0  0  0  0  0  0  0  0  0  0
   -1.7472    5.2219   -5.3019 C   0  0  0  0  0  0  0  0  0  0  0  0
   -1.7128    4.6991   -3.8764 C   0  0  0  0  0  0  0  0  0  0  0  0
   -0.9049    6.4767   -5.2366 C   0  0  0  0  0  0  0  0  0  0  0  0
    0.4756    5.8795   -5.2703 C   0  0  0  0  0  0  0  0  0  0  0  0
    0.6459    4.2835   -2.6180 C   0  0  0  0  0  0  0  0  0  0  0  0
    1.0000    1.0000    1.0000 C   0  0  0  0  0  0  0  0  0  0  0  0
    1.8487    0.1513    0.1513 N   0  0  0  0  0  0  0  0  0  0  0  0
    1.7598   -1.2129    0.2402 C   0  0  0  0  0  0  0  0  0  0  0  0
    0.9891   -1.7150    1.0109 O   0  0  0  0  0  0  0  0  0  0  0  0
    2.6374   -2.0905   -0.6374 C   0  0  0  0  0  0  0  0  0  0  0  0
    1.8776    1.8776    1.8776 C   0  0  0  0  0  0  0  0  0  0  0  0
    1.0000    2.7552    2.7552 C   0  0  0  0  0  0  0  0  0  0  0  0
    0.6049    2.2940    4.0066 C   0  0  0  0  0  0  0  0  0  0  0  0
   -0.1975    3.0939    4.8134 C   0  0  0  0  0  0  0  0  0  0  0  0
   -0.5947    4.3470    4.3576 C   0  0  0  0  0  0  0  0  0  0  0  0
   -1.3737    5.1264    5.1372 O   0  0  0  0  0  0  0  0  0  0  0  0
   -0.2026    4.8128    3.1068 C   0  0  0  0  0  0  0  0  0  0  0  0
    0.6001    4.0090    2.3044 C   0  0  0  0  0  0  0  0  0  0  0  0
  1  2  2  0
  2  3  1  0
  3  4  1  0
  4  5  1  0
  5  6  1  0
  6  7  1  0
  7  8  1  0
  8  9  1  0
  9 10  1  0
 10  6  1  0
  9 11  1  0
 11 12  1  0
 12  7  1  0
  6 13  1  0
 13  4  1  0
  2 14  1  0
 14 15  1  0
 15 16  1  0
 16 17  2  0
 16 18  1  0
 14 19  1  0
 19 20  1  0
 20 21  2  0
 21 22  1  0
 22 23  2  0
 23 24  1  0
 23 25  1  0
 25 26  2  0
 26 20  1  0
M  END
$$$$
s_527a____9322548____217438
     RDKit          3D

 23 23  0  0  0  0  0  0  0  0999 V2000
    1.6287   -2.8076   -4.4731 Cl  0  0  0  0  0  0  0  0  0  0  0  0
    2.0403   -1.5646   -3.2675 C   0  0  0  0  0  0  0  0  0  0  0  0
    2.8044   -1.9046   -2.1567 C   0  0  0  0  0  0  0  0  0  0  0  0
    3.1278   -0.9363   -1.2116 C   0  0  0  0  0  0  0  0  0  0  0  0
    2.6787    0.3673   -1.3944 C   0  0  0  0  0  0  0  0  0  0  0  0
    1.9143    0.7077   -2.5049 C   0  0  0  0  0  0  0  0  0  0  0  0
    1.5908   -0.2609   -3.4501 C   0  0  0  0  0  0  0  0  0  0  0  0
    3.0267    1.4309   -0.3667 C   0  0  0  0  0  0  0  0  0  0  0  0
    4.4855    1.6046   -0.3161 N   0  0  0  0  0  0  0  0  0  0  0  0
    5.0404    2.8242   -0.6018 C   0  0  0  0  0  0  0  0  0  0  0  0
    4.3356    3.7506   -0.8934 O   0  0  0  0  0  0  0  0  0  0  0  0
    6.5489    3.0038   -0.5495 C   0  0  0  0  0  0  0  0  0  0  0  0
    2.5200    1.0000    1.0000 C   0  0  0  0  0  0  0  0  0  0  0  0
    1.0000    1.0000    1.0000 C   0  0  0  0  0  0  0  0  0  0  0  0
    0.4000    1.0000   -0.0392 O   0  0  0  0  0  0  0  0  0  0  0  0
    0.3150    1.0000    2.1865 N   0  0  0  0  0  0  0  0  0  0  0  0
   -1.1550    1.0000    2.1865 C   0  0  0  0  0  0  0  0  0  0  0  0
   -1.6617    2.2411    2.9030 C   0  0  0  0  0  0  0  0  0  0  0  0
   -1.1883    3.4005    2.2336 O   0  0  0  0  0  0  0  0  0  0  0  0
   -1.6617   -0.2411    2.9030 C   0  0  0  0  0  0  0  0  0  0  0  0
   -3.1817   -0.2411    2.9030 C   0  0  0  0  0  0  0  0  0  0  0  0
   -3.6250   -0.2411    1.6491 F   0  0  0  0  0  0  0  0  0  0  0  0
   -3.6250   -1.3270    3.5300 F   0  0  0  0  0  0  0  0  0  0  0  0
  1  2  1  0
  2  3  2  0
  3  4  1  0
  4  5  2  0
  5  6  1  0
  6  7  2  0
  7  2  1  0
  5  8  1  0
  8  9  1  0
  9 10  1  0
 10 11  2  0
 10 12  1  0
  8 13  1  0
 13 14  1  0
 14 15  2  0
 14 16  1  0
 16 17  1  0
 17 18  1  0
 18 19  1  0
 17 20  1  0
 20 21  1  0
 21 22  1  0
 21 23  1  0
M  END
$$$$
s_22____16911156____13287762
     RDKit          3D

 27 28  0  0  0  0  0  0  0  0999 V2000
    5.0222    0.5711    7.3289 Br  0  0  0  0  0  0  0  0  0  0  0  0
    4.4183    0.3290    5.4800 C   0  0  0  0  0  0  0  0  0  0  0  0
    3.1754   -0.2438    5.2305 C   0  0  0  0  0  0  0  0  0  0  0  0
    2.7523   -0.4130    3.9163 C   0  0  0  0  0  0  0  0  0  0  0  0
    3.5738   -0.0090    2.8690 C   0  0  0  0  0  0  0  0  0  0  0  0
    4.8157    0.5633    3.1258 C   0  0  0  0  0  0  0  0  0  0  0  0
    5.2456    0.7355    4.4376 C   0  0  0  0  0  0  0  0  0  0  0  0
    3.1050   -0.1963    1.4354 C   0  0  0  0  0  0  0  0  0  0  0  0
    2.3700    1.0000    1.0000 N   0  0  0  0  0  0  0  0  0  0  0  0
    1.0000    1.0000    1.0000 C   0  0  0  0  0  0  0  0  0  0  0  0
    0.4000   -0.0392    1.0000 O   0  0  0  0  0  0  0  0  0  0  0  0
    0.2402    2.3160    1.0000 C   0  0  0  0  0  0  0  0  0  0  0  0
   -1.2145    2.0788    0.6307 C   0  0  0  0  0  0  0  0  0  0  0  0
   -2.0242    3.3674    0.6805 C   0  0  0  0  0  0  0  0  0  0  0  0
   -1.2155    4.5106    1.1328 N   0  0  0  0  0  0  0  0  0  0  0  0
   -2.0382    5.7262    1.2171 C   0  0  0  0  0  0  0  0  0  0  0  0
   -2.2043    6.3229   -0.1709 C   0  0  0  0  0  0  0  0  0  0  0  0
   -3.0549    7.5797   -0.0837 C   0  0  0  0  0  0  0  0  0  0  0  0
   -0.8386    6.6738   -0.7384 C   0  0  0  0  0  0  0  0  0  0  0  0
   -0.5709    4.2263    2.4239 C   0  0  0  0  0  0  0  0  0  0  0  0
    0.2486    2.9434    2.3845 C   0  0  0  0  0  0  0  0  0  0  0  0
    3.1050    2.1963    0.5646 C   0  0  0  0  0  0  0  0  0  0  0  0
    3.2232    2.1947   -0.9508 C   0  0  0  0  0  0  0  0  0  0  0  0
    2.7473    1.2966   -1.5888 O   0  0  0  0  0  0  0  0  0  0  0  0
    3.8731    3.2185   -1.5883 N   0  0  0  0  0  0  0  0  0  0  0  0
    3.9874    3.2170   -3.0538 C   0  0  0  0  0  0  0  0  0  0  0  0
    4.4561    4.3186   -0.8067 C   0  0  0  0  0  0  0  0  0  0  0  0
  1  2  1  0
  2  3  2  0
  3  4  1  0
  4  5  2  0
  5  6  1  0
  6  7  2  0
  7  2  1  0
  5  8  1  0
  8  9  1  0
  9 10  1  0
 10 11  2  0
 10 12  1  0
 12 13  1  0
 13 14  1  0
 14 15  1  0
 15 16  1  0
 16 17  1  0
 17 18  1  0
 17 19  1  0
 15 20  1  0
 20 21  1  0
 21 12  1  0
  9 22  1  0
 22 23  1  0
 23 24  2  0
 23 25  1  0
 25 26  1  0
 25 27  1  0
M  CHG  1  15   1
M  END
$$$$
s_2708____9163340____5904686
     RDKit          3D

 30 32  0  0  0  0  0  0  0  0999 V2000
    0.9150    1.0000    3.2257 O   0  0  0  0  0  0  0  0  0  0  0  0
    0.3150    1.0000    2.1865 C   0  0  0  0  0  0  0  0  0  0  0  0
    1.0000    1.0000    1.0000 N   0  0  0  0  0  0  0  0  0  0  0  0
    2.4700    1.0000    1.0000 C   0  0  0  0  0  0  0  0  0  0  0  0
    2.9767   -0.0133   -0.0133 C   0  0  0  0  0  0  0  0  0  0  0  0
    2.2887   -0.3248   -0.9459 O   0  0  0  0  0  0  0  0  0  0  0  0
    4.2188   -0.5711    0.1380 N   0  0  0  0  0  0  0  0  0  0  0  0
    4.8163   -1.2501   -0.9309 C   0  0  0  0  0  0  0  0  0  0  0  0
    4.6016   -2.6159   -1.0854 C   0  0  0  0  0  0  0  0  0  0  0  0
    5.1967   -3.2870   -2.1486 C   0  0  0  0  0  0  0  0  0  0  0  0
    5.9995   -2.5926   -3.0472 C   0  0  0  0  0  0  0  0  0  0  0  0
    6.2067   -1.2270   -2.8833 C   0  0  0  0  0  0  0  0  0  0  0  0
    5.6170   -0.5455   -1.8238 C   0  0  0  0  0  0  0  0  0  0  0  0
    4.9243   -0.4568    1.4226 C   0  0  0  0  0  0  0  0  0  0  0  0
    2.9767    2.3842    0.6291 C   0  0  0  0  0  0  0  0  0  0  0  0
    3.1456    3.2167    1.8900 C   0  0  0  0  0  0  0  0  0  0  0  0
    2.0829    3.9831    2.3572 C   0  0  0  0  0  0  0  0  0  0  0  0
    2.2420    4.7440    3.5108 C   0  0  0  0  0  0  0  0  0  0  0  0
    3.4564    4.7338    4.1888 C   0  0  0  0  0  0  0  0  0  0  0  0
    4.5109    3.9641    3.7131 C   0  0  0  0  0  0  0  0  0  0  0  0
    4.3646    3.1994    2.5603 C   0  0  0  0  0  0  0  0  0  0  0  0
   -1.0550    1.0000    2.1865 N   0  0  0  0  0  0  0  0  0  0  0  0
   -1.7898    1.0000    3.4591 C   0  0  0  0  0  0  0  0  0  0  0  0
   -2.6812   -0.2268    3.5864 C   0  0  0  0  0  0  0  0  0  0  0  0
   -4.0155   -0.1154    2.8632 C   0  0  0  0  0  0  0  0  0  0  0  0
   -5.1021    0.4211    3.7823 C   0  0  0  0  0  0  0  0  0  0  0  0
   -5.0029    1.9163    4.0529 C   0  0  0  0  0  0  0  0  0  0  0  0
   -3.6507    2.3267    4.6104 C   0  0  0  0  0  0  0  0  0  0  0  0
   -2.5807    2.2997    3.5288 C   0  0  0  0  0  0  0  0  0  0  0  0
   -6.4486    0.1579    3.1293 C   0  0  0  0  0  0  0  0  0  0  0  0
  1  2  2  0
  2  3  1  0
  3  4  1  0
  4  5  1  0
  5  6  2  0
  5  7  1  0
  7  8  1  0
  8  9  2  0
  9 10  1  0
 10 11  2  0
 11 12  1  0
 12 13  2  0
 13  8  1  0
  7 14  1  0
  4 15  1  0
 15 16  1  0
 16 17  2  0
 17 18  1  0
 18 19  2  0
 19 20  1  0
 20 21  2  0
 21 16  1  0
  2 22  1  0
 22 23  1  0
 23 24  1  0
 24 25  1  0
 25 26  1  0
 26 27  1  0
 27 28  1  0
 28 29  1  0
 29 23  1  0
 26 30  1  0
M  END
$$$$
s_2708____3191936____7940594
     RDKit          3D

 25 26  0  0  0  0  0  0  0  0999 V2000
    0.4000   -0.0392    1.0000 O   0  0  0  0  0  0  0  0  0  0  0  0
    1.0000    1.0000    1.0000 C   0  0  0  0  0  0  0  0  0  0  0  0
    2.3700    1.0000    1.0000 N   0  0  0  0  0  0  0  0  0  0  0  0
    3.1050   -0.2731    1.0000 C   0  0  0  0  0  0  0  0  0  0  0  0
    3.9789   -0.3536   -0.2411 C   0  0  0  0  0  0  0  0  0  0  0  0
    5.2596   -0.8875   -0.1429 C   0  0  0  0  0  0  0  0  0  0  0  0
    6.0625   -0.9639   -1.2760 C   0  0  0  0  0  0  0  0  0  0  0  0
    5.5732   -0.5050   -2.4949 C   0  0  0  0  0  0  0  0  0  0  0  0
    6.3492   -0.5769   -3.5971 O   0  0  0  0  0  0  0  0  0  0  0  0
    7.6587   -1.1192   -3.5093 C   0  0  0  0  0  0  0  0  0  0  0  0
    4.2933    0.0302   -2.5985 C   0  0  0  0  0  0  0  0  0  0  0  0
    3.4946    0.1038   -1.4624 C   0  0  0  0  0  0  0  0  0  0  0  0
    3.9789   -0.3536    2.2411 C   0  0  0  0  0  0  0  0  0  0  0  0
    3.1625   -0.2784    3.4005 O   0  0  0  0  0  0  0  0  0  0  0  0
    3.1050    2.2731    1.0000 C   0  0  0  0  0  0  0  0  0  0  0  0
    0.3150    2.1865    1.0000 N   0  0  0  0  0  0  0  0  0  0  0  0
   -1.1548    2.1865    1.0000 C   0  0  0  0  0  0  0  0  0  0  0  0
   -1.6790    2.8999   -0.2357 C   0  0  0  0  0  0  0  0  0  0  0  0
   -3.1991    2.9037   -0.2279 C   0  0  0  0  0  0  0  0  0  0  0  0
   -3.7180    3.5935    1.0233 C   0  0  0  0  0  0  0  0  0  0  0  0
   -3.1934    2.8795    2.2586 C   0  0  0  0  0  0  0  0  0  0  0  0
   -1.6734    2.8711    2.2543 C   0  0  0  0  0  0  0  0  0  0  0  0
   -1.1625    2.2070   -1.4862 C   0  0  0  0  0  0  0  0  0  0  0  0
   -1.6900    2.9249   -2.7177 C   0  0  0  0  0  0  0  0  0  0  0  0
   -1.1735    2.2321   -3.9682 C   0  0  0  0  0  0  0  0  0  0  0  0
  1  2  2  0
  2  3  1  0
  3  4  1  0
  4  5  1  0
  5  6  2  0
  6  7  1  0
  7  8  2  0
  8  9  1  0
  9 10  1  0
  8 11  1  0
 11 12  2  0
 12  5  1  0
  4 13  1  0
 13 14  1  0
  3 15  1  0
  2 16  1  0
 16 17  1  0
 17 18  1  0
 18 19  1  0
 19 20  1  0
 20 21  1  0
 21 22  1  0
 22 17  1  0
 18 23  1  0
 23 24  1  0
 24 25  1  0
M  END
$$$$
s_527a____13579206____17513452
     RDKit          3D

 28 30  0  0  0  0  0  0  0  0999 V2000
    7.7526    0.6385   -0.3193 O   0  0  0  0  0  0  0  0  0  0  0  0
    7.4797   -0.5294   -0.2789 C   0  0  0  0  0  0  0  0  0  0  0  0
    7.5926   -1.2660   -1.3563 O   0  0  0  0  0  0  0  0  0  0  0  0
    8.0378   -0.6825   -2.5719 C   0  0  0  0  0  0  0  0  0  0  0  0
    7.0024   -1.1551    1.0244 C   0  0  0  0  0  0  0  0  0  0  0  0
    5.6387   -1.7738    0.9950 C   0  0  0  0  0  0  0  0  0  0  0  0
    6.8594   -2.6496    0.9921 C   0  0  0  0  0  0  0  0  0  0  0  0
    4.7532   -1.6727    2.2282 C   0  0  0  0  0  0  0  0  0  0  0  0
    3.9825   -0.3620    2.2392 C   0  0  0  0  0  0  0  0  0  0  0  0
    3.1054   -0.2737    1.0000 C   0  0  0  0  0  0  0  0  0  0  0  0
    2.3700    1.0000    1.0000 N   0  0  0  0  0  0  0  0  0  0  0  0
    1.0000    1.0000    1.0000 C   0  0  0  0  0  0  0  0  0  0  0  0
    0.4000   -0.0392    1.0000 O   0  0  0  0  0  0  0  0  0  0  0  0
    0.2400    2.3164    1.0000 C   0  0  0  0  0  0  0  0  0  0  0  0
   -1.2052    2.0477    1.0000 N   0  0  0  0  0  0  0  0  0  0  0  0
   -1.9871    2.5058    2.0275 C   0  0  0  0  0  0  0  0  0  0  0  0
   -1.4922    3.1263    2.9275 O   0  0  0  0  0  0  0  0  0  0  0  0
   -3.4815    2.2281    2.0275 C   0  0  0  0  0  0  0  0  0  0  0  0
    0.6072    3.1134   -0.2411 C   0  0  0  0  0  0  0  0  0  0  0  0
   -0.1528    4.4298   -0.2411 C   0  0  0  0  0  0  0  0  0  0  0  0
    0.4132    5.5469    0.3644 C   0  0  0  0  0  0  0  0  0  0  0  0
   -0.2782    6.7537    0.3662 C   0  0  0  0  0  0  0  0  0  0  0  0
   -1.5287    6.8280   -0.2391 C   0  0  0  0  0  0  0  0  0  0  0  0
   -2.2034    7.9972   -0.2393 O   0  0  0  0  0  0  0  0  0  0  0  0
   -2.0995    5.7138   -0.8457 C   0  0  0  0  0  0  0  0  0  0  0  0
   -1.4035    4.5097   -0.8449 C   0  0  0  0  0  0  0  0  0  0  0  0
    3.9701   -0.3663   -0.2467 C   0  0  0  0  0  0  0  0  0  0  0  0
    4.6960   -1.7024   -0.1996 C   0  0  0  0  0  0  0  0  0  0  0  0
  1  2  2  0
  2  3  1  0
  3  4  1  0
  2  5  1  0
  5  6  1  0
  6  7  1  0
  7  5  1  0
  6  8  1  0
  8  9  1  0
  9 10  1  0
 10 11  1  0
 11 12  1  0
 12 13  2  0
 12 14  1  0
 14 15  1  0
 15 16  1  0
 16 17  2  0
 16 18  1  0
 14 19  1  0
 19 20  1  0
 20 21  2  0
 21 22  1  0
 22 23  2  0
 23 24  1  0
 23 25  1  0
 25 26  2  0
 26 20  1  0
 10 27  1  0
 27 28  1  0
 28  6  1  0
M  END
$$$$
s_276436a____16945484____14107082
     RDKit          3D

 24 25  0  0  0  0  0  0  0  0999 V2000
    8.2818    0.3852    2.2810 Br  0  0  0  0  0  0  0  0  0  0  0  0
    6.8164    0.2368    0.9881 C   0  0  0  0  0  0  0  0  0  0  0  0
    5.5191    0.0220    1.4403 C   0  0  0  0  0  0  0  0  0  0  0  0
    4.4898   -0.0818    0.5098 C   0  0  0  0  0  0  0  0  0  0  0  0
    4.7433    0.0260   -0.8534 C   0  0  0  0  0  0  0  0  0  0  0  0
    6.0484    0.2402   -1.2841 C   0  0  0  0  0  0  0  0  0  0  0  0
    7.0919    0.3471   -0.3707 C   0  0  0  0  0  0  0  0  0  0  0  0
    3.0700   -0.3164    1.0000 C   0  0  0  0  0  0  0  0  0  0  0  0
    2.3956   -1.2716    0.1091 N   0  0  0  0  0  0  0  0  0  0  0  0
    1.9201   -2.4555    0.6082 C   0  0  0  0  0  0  0  0  0  0  0  0
    2.0543   -2.7128    1.7726 O   0  0  0  0  0  0  0  0  0  0  0  0
    1.2227   -3.4432   -0.3129 C   0  0  0  0  0  0  0  0  0  0  0  0
    2.3100    1.0000    1.0000 C   0  0  0  0  0  0  0  0  0  0  0  0
    2.9100    2.0392    1.0000 O   0  0  0  0  0  0  0  0  0  0  0  0
    1.0000    1.0000    1.0000 O   0  0  0  0  0  0  0  0  0  0  0  0
    0.2901    2.2296    1.0000 C   0  0  0  0  0  0  0  0  0  0  0  0
   -0.5888    2.3236    2.2370 C   0  0  0  0  0  0  0  0  0  0  0  0
   -1.3514    3.6387    2.2345 C   0  0  0  0  0  0  0  0  0  0  0  0
   -2.2041    3.7509    0.9808 C   0  0  0  0  0  0  0  0  0  0  0  0
   -1.3150    3.6599   -0.2488 C   0  0  0  0  0  0  0  0  0  0  0  0
   -0.5563    2.3422   -0.2578 C   0  0  0  0  0  0  0  0  0  0  0  0
   -2.9541    5.0726    0.9810 C   0  0  0  0  0  0  0  0  0  0  0  0
   -3.8027    5.1739   -0.2760 C   0  0  0  0  0  0  0  0  0  0  0  0
   -4.5528    6.4959   -0.2758 C   0  0  0  0  0  0  0  0  0  0  0  0
  1  2  1  0
  2  3  2  0
  3  4  1  0
  4  5  2  0
  5  6  1  0
  6  7  2  0
  7  2  1  0
  4  8  1  0
  8  9  1  0
  9 10  1  0
 10 11  2  0
 10 12  1  0
  8 13  1  0
 13 14  2  0
 13 15  1  0
 15 16  1  0
 16 17  1  0
 17 18  1  0
 18 19  1  0
 19 20  1  0
 20 21  1  0
 21 16  1  0
 19 22  1  0
 22 23  1  0
 23 24  1  0
M  END
$$$$
s_22____8964248____16717358
     RDKit          3D

 27 28  0  0  0  0  0  0  0  0999 V2000
   -2.0374    1.7598    1.0994 O   0  0  0  0  0  0  0  0  0  0  0  0
   -1.0631    2.0913    1.7165 C   0  0  0  0  0  0  0  0  0  0  0  0
   -1.1497    2.3106    3.0956 N   0  0  0  0  0  0  0  0  0  0  0  0
   -2.4469    2.1278    3.7651 C   0  0  0  0  0  0  0  0  0  0  0  0
   -2.6437    0.7065    4.2720 C   0  0  0  0  0  0  0  0  0  0  0  0
   -1.7727    0.3709    5.4769 C   0  0  0  0  0  0  0  0  0  0  0  0
   -0.2831    0.6255    5.2673 C   0  0  0  0  0  0  0  0  0  0  0  0
    0.0835    2.1032    5.2285 C   0  0  0  0  0  0  0  0  0  0  0  0
    0.0597    2.7100    3.8301 C   0  0  0  0  0  0  0  0  0  0  0  0
   -4.0935    0.4834    4.6703 C   0  0  0  0  0  0  0  0  0  0  0  0
    0.2650    2.2731    1.0000 C   0  0  0  0  0  0  0  0  0  0  0  0
    1.0000    1.0000    1.0000 N   0  0  0  0  0  0  0  0  0  0  0  0
    2.3700    1.0000    1.0000 C   0  0  0  0  0  0  0  0  0  0  0  0
    2.9700    2.0392    1.0000 O   0  0  0  0  0  0  0  0  0  0  0  0
    3.1300   -0.3164    1.0000 C   0  0  0  0  0  0  0  0  0  0  0  0
    3.3750   -0.7407   -0.3859 N   0  0  0  0  0  0  0  0  0  0  0  0
    4.5167   -0.3452   -1.0318 C   0  0  0  0  0  0  0  0  0  0  0  0
    5.3167    0.3476   -0.4661 O   0  0  0  0  0  0  0  0  0  0  0  0
    4.7700   -0.7840   -2.4648 C   0  0  0  0  0  0  0  0  0  0  0  0
    0.0117    2.7118   -0.4331 C   0  0  0  0  0  0  0  0  0  0  0  0
   -0.7484    4.0282   -0.4331 C   0  0  0  0  0  0  0  0  0  0  0  0
   -0.0418    5.2264   -0.4331 C   0  0  0  0  0  0  0  0  0  0  0  0
   -0.7330    6.4334   -0.4338 C   0  0  0  0  0  0  0  0  0  0  0  0
   -2.1243    6.4265   -0.4351 C   0  0  0  0  0  0  0  0  0  0  0  0
   -2.8341    7.6563   -0.4355 O   0  0  0  0  0  0  0  0  0  0  0  0
   -2.8357    5.2310   -0.4347 C   0  0  0  0  0  0  0  0  0  0  0  0
   -2.1394    4.0270   -0.4344 C   0  0  0  0  0  0  0  0  0  0  0  0
  1  2  2  0
  2  3  1  0
  3  4  1  0
  4  5  1  0
  5  6  1  0
  6  7  1  0
  7  8  1  0
  8  9  1  0
  9  3  1  0
  5 10  1  0
  2 11  1  0
 11 12  1  0
 12 13  1  0
 13 14  2  0
 13 15  1  0
 15 16  1  0
 16 17  1  0
 17 18  2  0
 17 19  1  0
 11 20  1  0
 20 21  1  0
 21 22  2  0
 22 23  1  0
 23 24  2  0
 24 25  1  0
 24 26  1  0
 26 27  2  0
 27 21  1  0
M  END
$$$$
s_527a____543010____15715224
     RDKit          3D

 28 29  0  0  0  0  0  0  0  0999 V2000
    3.4716    0.3240    1.8978 O   0  0  0  0  0  0  0  0  0  0  0  0
    3.0831    1.4052    2.2442 C   0  0  0  0  0  0  0  0  0  0  0  0
    3.8395    2.1616    3.0005 O   0  0  0  0  0  0  0  0  0  0  0  0
    5.1190    1.7019    3.4104 C   0  0  0  0  0  0  0  0  0  0  0  0
    5.7854    2.7611    4.2732 C   0  0  0  0  0  0  0  0  0  0  0  0
    4.9639    0.4196    4.2118 C   0  0  0  0  0  0  0  0  0  0  0  0
    5.9772    1.4330    2.1851 C   0  0  0  0  0  0  0  0  0  0  0  0
    1.8487    1.8487    1.8487 N   0  0  0  0  0  0  0  0  0  0  0  0
    1.0000    1.0000    1.0000 C   0  0  0  0  0  0  0  0  0  0  0  0
    0.7075    1.7208   -0.3059 C   0  0  0  0  0  0  0  0  0  0  0  0
   -0.3868    1.6571   -0.7943 O   0  0  0  0  0  0  0  0  0  0  0  0
    1.6931    2.4433   -0.9252 N   0  0  0  0  0  0  0  0  0  0  0  0
    1.4102    3.1403   -2.1880 C   0  0  0  0  0  0  0  0  0  0  0  0
    1.6420    4.6336   -2.0207 C   0  0  0  0  0  0  0  0  0  0  0  0
    1.3465    5.3430   -3.3322 C   0  0  0  0  0  0  0  0  0  0  0  0
    2.2350    4.8034   -4.4415 C   0  0  0  0  0  0  0  0  0  0  0  0
    1.9992    3.3099   -4.6000 C   0  0  0  0  0  0  0  0  0  0  0  0
    2.2939    2.5882   -3.2948 C   0  0  0  0  0  0  0  0  0  0  0  0
    1.9332    5.5187   -5.7476 C   0  0  0  0  0  0  0  0  0  0  0  0
    2.8289    4.9683   -6.8454 C   0  0  0  0  0  0  0  0  0  0  0  0
   -0.3059    0.7075    1.7208 C   0  0  0  0  0  0  0  0  0  0  0  0
   -0.0134   -0.0133    3.0265 C   0  0  0  0  0  0  0  0  0  0  0  0
    0.0423   -1.3821    3.0498 C   0  0  0  0  0  0  0  0  0  0  0  0
    0.3174   -2.0242    4.2861 C   0  0  0  0  0  0  0  0  0  0  0  0
    0.3684   -3.2433    4.3096 O   0  0  0  0  0  0  0  0  0  0  0  0
    0.5188   -1.2755    5.4165 N   0  0  0  0  0  0  0  0  0  0  0  0
    0.4609    0.0936    5.3801 C   0  0  0  0  0  0  0  0  0  0  0  0
    0.1984    0.7502    4.2054 C   0  0  0  0  0  0  0  0  0  0  0  0
  1  2  2  0
  2  3  1  0
  3  4  1  0
  4  5  1  0
  4  6  1  0
  4  7  1  0
  2  8  1  0
  8  9  1  0
  9 10  1  0
 10 11  2  0
 10 12  1  0
 12 13  1  0
 13 14  1  0
 14 15  1  0
 15 16  1  0
 16 17  1  0
 17 18  1  0
 18 13  1  0
 16 19  1  0
 19 20  1  0
  9 21  1  0
 21 22  1  0
 22 23  2  0
 23 24  1  0
 24 25  2  0
 24 26  1  0
 26 27  1  0
 27 28  2  0
 28 22  1  0
M  END
$$$$
s_272104____15425646____11403110
     RDKit          3D

 25 28  0  0  0  0  0  0  0  0999 V2000
    5.3743    2.3475    2.4635 O   0  0  0  0  0  0  0  0  0  0  0  0
    4.1555    2.2887    2.4892 C   0  0  0  0  0  0  0  0  0  0  0  0
    3.3018    3.3939    2.5029 N   0  0  0  0  0  0  0  0  0  0  0  0
    1.9798    2.9577    2.5312 C   0  0  0  0  0  0  0  0  0  0  0  0
    0.9852    3.6651    2.5372 O   0  0  0  0  0  0  0  0  0  0  0  0
    1.9945    1.4468    2.5386 C   0  0  0  0  0  0  0  0  0  0  0  0
    3.4189    1.1018    2.5147 N   0  0  0  0  0  0  0  0  0  0  0  0
    1.2739    0.8762    1.3276 C   0  0  0  0  0  0  0  0  0  0  0  0
    1.4079   -0.6383    1.3251 C   0  0  0  0  0  0  0  0  0  0  0  0
    0.4558   -1.4218    1.9698 C   0  0  0  0  0  0  0  0  0  0  0  0
   -0.5929   -0.8536    2.6029 O   0  0  0  0  0  0  0  0  0  0  0  0
    0.5785   -2.8078    1.9677 C   0  0  0  0  0  0  0  0  0  0  0  0
    1.6531   -3.4100    1.3205 C   0  0  0  0  0  0  0  0  0  0  0  0
    2.6045   -2.6261    0.6754 C   0  0  0  0  0  0  0  0  0  0  0  0
    2.4814   -1.2404    0.6774 C   0  0  0  0  0  0  0  0  0  0  0  0
    3.7359    4.8008    2.4884 C   0  0  0  0  0  0  0  0  0  0  0  0
    3.2507    5.5451    3.7195 C   0  0  0  0  0  0  0  0  0  0  0  0
    2.4486    6.6517    3.1764 N   0  0  0  0  0  0  0  0  0  0  0  0
    2.9263    6.9602    1.8209 C   0  0  0  0  0  0  0  0  0  0  0  0
    3.1316    5.5383    1.3087 C   0  0  0  0  0  0  0  0  0  0  0  0
    4.1374    7.8768    1.7426 C   0  0  0  0  0  0  0  0  0  0  0  0
    4.2057    8.4336    0.3312 C   0  0  0  0  0  0  0  0  0  0  0  0
    2.7845    8.3453   -0.1794 C   0  0  0  0  0  0  0  0  0  0  0  0
    1.9661    7.7764    0.9634 C   0  0  0  0  0  0  0  0  0  0  0  0
    2.5507    7.7876    4.1094 C   0  0  0  0  0  0  0  0  0  0  0  0
  1  2  2  0
  2  3  1  0
  3  4  1  0
  4  5  2  0
  4  6  1  0
  6  7  1  0
  7  2  1  0
  6  8  1  0
  8  9  1  0
  9 10  2  0
 10 11  1  0
 10 12  1  0
 12 13  2  0
 13 14  1  0
 14 15  2  0
 15  9  1  0
  3 16  1  0
 16 17  1  0
 17 18  1  0
 18 19  1  0
 19 20  1  0
 20 16  1  0
 19 21  1  0
 21 22  1  0
 22 23  1  0
 23 24  1  0
 24 19  1  0
 18 25  1  0
M  CHG  1  18   1
M  END
$$$$
s_22____13462392____12624298
     RDKit          3D

 22 24  0  0  0  0  0  0  0  0999 V2000
   -4.3722    0.4352    0.6595 Br  0  0  0  0  0  0  0  0  0  0  0  0
   -2.6869    0.4404    1.6597 C   0  0  0  0  0  0  0  0  0  0  0  0
   -1.4943    0.7082    0.9968 C   0  0  0  0  0  0  0  0  0  0  0  0
   -0.3061    0.7074    1.7209 C   0  0  0  0  0  0  0  0  0  0  0  0
   -0.2999    0.4442    3.0865 C   0  0  0  0  0  0  0  0  0  0  0  0
   -1.5042    0.1782    3.7298 C   0  0  0  0  0  0  0  0  0  0  0  0
   -2.7031    0.1741    3.0247 C   0  0  0  0  0  0  0  0  0  0  0  0
    1.0000    1.0000    1.0000 C   0  0  0  0  0  0  0  0  0  0  0  0
    1.8487    1.8487    1.8487 N   0  0  0  0  0  0  0  0  0  0  0  0
    3.1799    1.5592    1.9935 C   0  0  0  0  0  0  0  0  0  0  0  0
    3.6531    0.6128    1.4274 O   0  0  0  0  0  0  0  0  0  0  0  0
    4.0575    2.4368    2.8710 C   0  0  0  0  0  0  0  0  0  0  0  0
    0.7075    1.7208   -0.3059 C   0  0  0  0  0  0  0  0  0  0  0  0
    0.8354    1.1449   -1.3508 O   0  0  0  0  0  0  0  0  0  0  0  0
    0.2886    3.0571   -0.2895 N   0  0  0  0  0  0  0  0  0  0  0  0
    0.2648    4.1530   -1.2606 C   0  0  0  0  0  0  0  0  0  0  0  0
    1.5056    4.2149   -2.1446 C   0  0  0  0  0  0  0  0  0  0  0  0
    1.8752    5.6384   -2.5121 C   0  0  0  0  0  0  0  0  0  0  0  0
    2.2696    5.0923   -3.8668 C   0  0  0  0  0  0  0  0  0  0  0  0
    1.2414    4.0041   -3.6193 C   0  0  0  0  0  0  0  0  0  0  0  0
    0.3710    5.0568   -0.0561 C   0  0  0  0  0  0  0  0  0  0  0  0
   -0.3566    3.9499    0.6715 C   0  0  0  0  0  0  0  0  0  0  0  0
  1  2  1  0
  2  3  2  0
  3  4  1  0
  4  5  2  0
  5  6  1  0
  6  7  2  0
  7  2  1  0
  4  8  1  0
  8  9  1  0
  9 10  1  0
 10 11  2  0
 10 12  1  0
  8 13  1  0
 13 14  2  0
 13 15  1  0
 15 16  1  0
 16 17  1  0
 17 18  1  0
 18 19  1  0
 19 20  1  0
 20 17  1  0
 16 21  1  0
 21 22  1  0
 22 15  1  0
M  END
$$$$
s_2708____6465958____16908188
     RDKit          3D

 23 24  0  0  0  0  0  0  0  0999 V2000
    0.9150    1.0000    3.2257 O   0  0  0  0  0  0  0  0  0  0  0  0
    0.3150    1.0000    2.1865 C   0  0  0  0  0  0  0  0  0  0  0  0
   -1.0795    1.0000    2.1865 N   0  0  0  0  0  0  0  0  0  0  0  0
   -1.8099    1.0000    0.9103 C   0  0  0  0  0  0  0  0  0  0  0  0
   -3.0506    0.1179    0.8970 C   0  0  0  0  0  0  0  0  0  0  0  0
   -2.6599   -1.3533    0.8320 C   0  0  0  0  0  0  0  0  0  0  0  0
   -1.9566   -1.8718    2.0841 C   0  0  0  0  0  0  0  0  0  0  0  0
   -2.5856   -1.4655    3.4135 C   0  0  0  0  0  0  0  0  0  0  0  0
   -1.8581   -0.3586    4.1704 C   0  0  0  0  0  0  0  0  0  0  0  0
   -1.7516    1.0107    3.5003 C   0  0  0  0  0  0  0  0  0  0  0  0
   -2.1994    2.4424    0.6346 C   0  0  0  0  0  0  0  0  0  0  0  0
    1.0000    1.0000    1.0000 N   0  0  0  0  0  0  0  0  0  0  0  0
    2.4700    1.0000    1.0000 C   0  0  0  0  0  0  0  0  0  0  0  0
    2.9767   -0.2411    0.2835 C   0  0  0  0  0  0  0  0  0  0  0  0
    4.3967   -0.2411    0.2835 O   0  0  0  0  0  0  0  0  0  0  0  0
    4.8700   -1.4005   -0.3859 C   0  0  0  0  0  0  0  0  0  0  0  0
    2.9767    2.2411    0.2835 C   0  0  0  0  0  0  0  0  0  0  0  0
    2.4699    3.4824    1.0001 C   0  0  0  0  0  0  0  0  0  0  0  0
    3.2268    4.0450    2.0226 C   0  0  0  0  0  0  0  0  0  0  0  0
    2.7591    5.1803    2.6763 C   0  0  0  0  0  0  0  0  0  0  0  0
    1.5434    5.7453    2.3053 C   0  0  0  0  0  0  0  0  0  0  0  0
    0.7960    5.1750    1.2822 C   0  0  0  0  0  0  0  0  0  0  0  0
    1.2526    4.0394    0.6212 C   0  0  0  0  0  0  0  0  0  0  0  0
  1  2  2  0
  2  3  1  0
  3  4  1  0
  4  5  1  0
  5  6  1  0
  6  7  1  0
  7  8  1  0
  8  9  1  0
  9 10  1  0
 10  3  1  0
  4 11  1  0
  2 12  1  0
 12 13  1  0
 13 14  1  0
 14 15  1  0
 15 16  1  0
 13 17  1  0
 17 18  1  0
 18 19  2  0
 19 20  1  0
 20 21  2  0
 21 22  1  0
 22 23  2  0
 23 18  1  0
M  END
$$$$
s_58____14655618____12369798
     RDKit          3D

 24 25  0  0  0  0  0  0  0  0999 V2000
    4.3930    3.6542   -3.5793 F   0  0  0  0  0  0  0  0  0  0  0  0
    3.9487    3.0287   -2.4929 C   0  0  0  0  0  0  0  0  0  0  0  0
    3.7181    3.7490   -1.3253 C   0  0  0  0  0  0  0  0  0  0  0  0
    3.2542    3.0877   -0.1927 C   0  0  0  0  0  0  0  0  0  0  0  0
    3.0266    1.7164   -0.2409 C   0  0  0  0  0  0  0  0  0  0  0  0
    3.2583    1.0015   -1.4111 C   0  0  0  0  0  0  0  0  0  0  0  0
    3.7218    1.6573   -2.5466 C   0  0  0  0  0  0  0  0  0  0  0  0
    2.5200    1.0000    1.0000 C   0  0  0  0  0  0  0  0  0  0  0  0
    1.0000    1.0000    1.0000 C   0  0  0  0  0  0  0  0  0  0  0  0
    0.4000    1.0000   -0.0392 O   0  0  0  0  0  0  0  0  0  0  0  0
    0.3150    1.0000    2.1865 N   0  0  0  0  0  0  0  0  0  0  0  0
   -1.1539    1.0000    2.1865 C   0  0  0  0  0  0  0  0  0  0  0  0
   -1.7361   -0.4014    2.1865 C   0  0  0  0  0  0  0  0  0  0  0  0
   -1.6289   -1.0398    0.8112 C   0  0  0  0  0  0  0  0  0  0  0  0
   -2.2217   -2.4388    0.8544 C   0  0  0  0  0  0  0  0  0  0  0  0
   -2.3907   -0.1977   -0.1992 C   0  0  0  0  0  0  0  0  0  0  0  0
   -3.1865   -0.1654    2.5758 C   0  0  0  0  0  0  0  0  0  0  0  0
   -3.1816    1.1147    3.3905 C   0  0  0  0  0  0  0  0  0  0  0  0
   -1.7238    1.5284    3.4876 C   0  0  0  0  0  0  0  0  0  0  0  0
    3.0267   -0.4331    1.0000 C   0  0  0  0  0  0  0  0  0  0  0  0
    4.5467   -0.4331    1.0000 C   0  0  0  0  0  0  0  0  0  0  0  0
    5.1517   -0.4331    2.0479 O   0  0  0  0  0  0  0  0  0  0  0  0
    5.1717   -0.4331   -0.0825 O   0  0  0  0  0  0  0  0  0  0  0  0
    3.0267    1.7165    2.2411 C   0  0  0  0  0  0  0  0  0  0  0  0
  1  2  1  0
  2  3  2  0
  3  4  1  0
  4  5  2  0
  5  6  1  0
  6  7  2  0
  7  2  1  0
  5  8  1  0
  8  9  1  0
  9 10  2  0
  9 11  1  0
 11 12  1  0
 12 13  1  0
 13 14  1  0
 14 15  1  0
 14 16  1  0
 13 17  1  0
 17 18  1  0
 18 19  1  0
 19 12  1  0
  8 20  1  0
 20 21  1  0
 21 22  1  0
 21 23  2  0
  8 24  1  0
M  CHG  1  22  -1
M  END
$$$$
s_11a____16536188____16717356
     RDKit          3D

 31 33  0  0  0  0  0  0  0  0999 V2000
    1.6090   -7.3415   -3.5236 F   0  0  0  0  0  0  0  0  0  0  0  0
    1.9737   -6.0896   -3.8051 C   0  0  0  0  0  0  0  0  0  0  0  0
    2.3952   -6.0626   -5.0667 F   0  0  0  0  0  0  0  0  0  0  0  0
    0.7792   -5.1613   -3.6449 C   0  0  0  0  0  0  0  0  0  0  0  0
    1.2113   -3.7352   -3.9598 C   0  0  0  0  0  0  0  0  0  0  0  0
    2.3209   -3.2670   -3.0317 C   0  0  0  0  0  0  0  0  0  0  0  0
    1.7998   -2.9825   -1.6290 C   0  0  0  0  0  0  0  0  0  0  0  0
    2.8375   -1.8803   -1.5436 C   0  0  0  0  0  0  0  0  0  0  0  0
    2.3481   -0.6814   -0.8514 N   0  0  0  0  0  0  0  0  0  0  0  0
    2.9767   -0.2411    0.2835 C   0  0  0  0  0  0  0  0  0  0  0  0
    3.9272   -0.8352    0.7118 O   0  0  0  0  0  0  0  0  0  0  0  0
    2.4700    1.0000    1.0000 C   0  0  0  0  0  0  0  0  0  0  0  0
    1.0000    1.0000    1.0000 N   0  0  0  0  0  0  0  0  0  0  0  0
    0.3150    1.0000    2.1865 C   0  0  0  0  0  0  0  0  0  0  0  0
    0.9150    1.0000    3.2257 O   0  0  0  0  0  0  0  0  0  0  0  0
   -1.2050    1.0000    2.1865 C   0  0  0  0  0  0  0  0  0  0  0  0
   -1.6950    1.0000    3.5724 N   0  0  0  0  0  0  0  0  0  0  0  0
   -1.7291    2.1684    4.2869 C   0  0  0  0  0  0  0  0  0  0  0  0
   -1.3590    3.1919    3.7814 O   0  0  0  0  0  0  0  0  0  0  0  0
   -2.2358    2.1684    5.7200 C   0  0  0  0  0  0  0  0  0  0  0  0
    2.9767    2.2411    0.2835 C   0  0  0  0  0  0  0  0  0  0  0  0
    4.4967    2.2411    0.2835 C   0  0  0  0  0  0  0  0  0  0  0  0
    5.1811    1.6356   -0.7653 C   0  0  0  0  0  0  0  0  0  0  0  0
    6.5719    1.6338   -0.7699 C   0  0  0  0  0  0  0  0  0  0  0  0
    7.2616    2.2391    0.2759 C   0  0  0  0  0  0  0  0  0  0  0  0
    8.6114    2.2393    0.2756 O   0  0  0  0  0  0  0  0  0  0  0  0
    6.5820    2.8457    1.3273 C   0  0  0  0  0  0  0  0  0  0  0  0
    5.1912    2.8449    1.3266 C   0  0  0  0  0  0  0  0  0  0  0  0
    2.6762   -1.7983   -3.0446 C   0  0  0  0  0  0  0  0  0  0  0  0
    3.4927   -4.2268   -3.1813 C   0  0  0  0  0  0  0  0  0  0  0  0
    3.0883   -5.6574   -2.8599 C   0  0  0  0  0  0  0  0  0  0  0  0
  1  2  1  0
  2  3  1  0
  2  4  1  0
  4  5  1  0
  5  6  1  0
  6  7  1  0
  7  8  1  0
  8  9  1  0
  9 10  1  0
 10 11  2  0
 10 12  1  0
 12 13  1  0
 13 14  1  0
 14 15  2  0
 14 16  1  0
 16 17  1  0
 17 18  1  0
 18 19  2  0
 18 20  1  0
 12 21  1  0
 21 22  1  0
 22 23  2  0
 23 24  1  0
 24 25  2  0
 25 26  1  0
 25 27  1  0
 27 28  2  0
 28 22  1  0
  8 29  1  0
 29  6  1  0
  6 30  1  0
 30 31  1  0
 31  2  1  0
M  END
$$$$
s_22____10687150____107333
     RDKit          3D

 28 29  0  0  0  0  0  0  0  0999 V2000
   -2.3692    0.6878    7.4930 Br  0  0  0  0  0  0  0  0  0  0  0  0
   -2.0123    0.4680    5.5784 C   0  0  0  0  0  0  0  0  0  0  0  0
   -1.4503   -0.7167    5.1138 C   0  0  0  0  0  0  0  0  0  0  0  0
   -1.1994   -0.8669    3.7539 C   0  0  0  0  0  0  0  0  0  0  0  0
   -1.5119    0.1659    2.8760 C   0  0  0  0  0  0  0  0  0  0  0  0
   -2.0738    1.3481    3.3475 C   0  0  0  0  0  0  0  0  0  0  0  0
   -2.3275    1.5054    4.7062 C   0  0  0  0  0  0  0  0  0  0  0  0
   -1.2356   -0.0051    1.3912 C   0  0  0  0  0  0  0  0  0  0  0  0
   -2.0400   -1.1187    0.8682 N   0  0  0  0  0  0  0  0  0  0  0  0
   -2.9486   -0.8964   -0.1328 C   0  0  0  0  0  0  0  0  0  0  0  0
   -3.0878    0.2073   -0.5826 O   0  0  0  0  0  0  0  0  0  0  0  0
   -3.7804   -2.0479   -0.6736 C   0  0  0  0  0  0  0  0  0  0  0  0
    0.2400   -0.3038    1.1816 C   0  0  0  0  0  0  0  0  0  0  0  0
    1.0000    1.0000    1.0000 C   0  0  0  0  0  0  0  0  0  0  0  0
    0.4000    2.0293    0.8566 O   0  0  0  0  0  0  0  0  0  0  0  0
    2.4061    1.0000    1.0000 N   0  0  0  0  0  0  0  0  0  0  0  0
    3.1707   -0.1088    1.5878 C   0  0  0  0  0  0  0  0  0  0  0  0
    4.5014   -0.2222    0.8613 C   0  0  0  0  0  0  0  0  0  0  0  0
    5.2727   -1.4453    1.3297 C   0  0  0  0  0  0  0  0  0  0  0  0
    6.1395   -1.9634    0.1937 C   0  0  0  0  0  0  0  0  0  0  0  0
    7.3408   -1.0494    0.0156 C   0  0  0  0  0  0  0  0  0  0  0  0
    7.5170   -0.4869   -1.0297 O   0  0  0  0  0  0  0  0  0  0  0  0
    8.2225   -0.8679    1.0483 N   0  0  0  0  0  0  0  0  0  0  0  0
    6.6164   -3.3691    0.5208 C   0  0  0  0  0  0  0  0  0  0  0  0
    5.3280   -1.9899   -1.0913 C   0  0  0  0  0  0  0  0  0  0  0  0
    5.3251    1.0091    1.1998 C   0  0  0  0  0  0  0  0  0  0  0  0
    4.4851    2.2777    1.1944 C   0  0  0  0  0  0  0  0  0  0  0  0
    3.1888    2.1008    0.4193 C   0  0  0  0  0  0  0  0  0  0  0  0
  1  2  1  0
  2  3  2  0
  3  4  1  0
  4  5  2  0
  5  6  1  0
  6  7  2  0
  7  2  1  0
  5  8  1  0
  8  9  1  0
  9 10  1  0
 10 11  2  0
 10 12  1  0
  8 13  1  0
 13 14  1  0
 14 15  2  0
 14 16  1  0
 16 17  1  0
 17 18  1  0
 18 19  1  0
 19 20  1  0
 20 21  1  0
 21 22  2  0
 21 23  1  0
 20 24  1  0
 20 25  1  0
 18 26  1  0
 26 27  1  0
 27 28  1  0
 28 16  1  0
M  END
$$$$
s_1458____17513454____15767436
     RDKit          3D

 24 26  0  0  0  0  0  0  0  0999 V2000
    4.0999    6.3841    5.9912 F   0  0  0  0  0  0  0  0  0  0  0  0
    3.6670    5.4643    5.1317 C   0  0  0  0  0  0  0  0  0  0  0  0
    4.5787    4.7230    4.5059 F   0  0  0  0  0  0  0  0  0  0  0  0
    2.3504    4.8320    5.4995 C   0  0  0  0  0  0  0  0  0  0  0  0
    2.4135    5.8376    4.3865 C   0  0  0  0  0  0  0  0  0  0  0  0
    1.9263    5.1415    3.1345 C   0  0  0  0  0  0  0  0  0  0  0  0
    2.1628    3.6705    3.3919 C   0  0  0  0  0  0  0  0  0  0  0  0
    1.3435    2.8512    2.5726 O   0  0  0  0  0  0  0  0  0  0  0  0
    1.8776    1.8776    1.8776 C   0  0  0  0  0  0  0  0  0  0  0  0
    3.0596    1.6786    1.9338 O   0  0  0  0  0  0  0  0  0  0  0  0
    1.0000    1.0000    1.0000 C   0  0  0  0  0  0  0  0  0  0  0  0
   -0.2629    0.7171    1.6971 N   0  0  0  0  0  0  0  0  0  0  0  0
   -0.6150   -0.5766    1.9787 C   0  0  0  0  0  0  0  0  0  0  0  0
    0.1075   -1.4788    1.6563 O   0  0  0  0  0  0  0  0  0  0  0  0
   -1.9209   -0.8691    2.6995 C   0  0  0  0  0  0  0  0  0  0  0  0
    0.7075    1.7208   -0.3059 C   0  0  0  0  0  0  0  0  0  0  0  0
   -0.1701    0.8432   -1.1835 C   0  0  0  0  0  0  0  0  0  0  0  0
   -1.5540    0.9425   -1.0842 C   0  0  0  0  0  0  0  0  0  0  0  0
   -2.3610    0.1420   -1.8857 C   0  0  0  0  0  0  0  0  0  0  0  0
   -1.7726   -0.7486   -2.7781 C   0  0  0  0  0  0  0  0  0  0  0  0
   -2.5520   -1.5276   -3.5577 O   0  0  0  0  0  0  0  0  0  0  0  0
   -0.3891   -0.8520   -2.8811 C   0  0  0  0  0  0  0  0  0  0  0  0
    0.4131   -0.0489   -2.0774 C   0  0  0  0  0  0  0  0  0  0  0  0
    1.7469    3.6007    4.8491 C   0  0  0  0  0  0  0  0  0  0  0  0
  1  2  1  0
  2  3  1  0
  2  4  1  0
  4  5  1  0
  5  2  1  0
  5  6  1  0
  6  7  1  0
  7  8  1  0
  8  9  1  0
  9 10  2  0
  9 11  1  0
 11 12  1  0
 12 13  1  0
 13 14  2  0
 13 15  1  0
 11 16  1  0
 16 17  1  0
 17 18  2  0
 18 19  1  0
 19 20  2  0
 20 21  1  0
 20 22  1  0
 22 23  2  0
 23 17  1  0
  7 24  1  0
 24  4  1  0
M  END
$$$$
s_2230a____8737804____666216
     RDKit          3D

 25 26  0  0  0  0  0  0  0  0999 V2000
   -0.2238    2.6484    2.6484 O   0  0  0  0  0  0  0  0  0  0  0  0
    0.9711    2.7263    2.7263 C   0  0  0  0  0  0  0  0  0  0  0  0
    1.5444    3.6061    3.6061 N   0  0  0  0  0  0  0  0  0  0  0  0
    0.6957    4.4548    4.4548 C   0  0  0  0  0  0  0  0  0  0  0  0
    0.9882    5.9175    4.1623 C   0  0  0  0  0  0  0  0  0  0  0  0
    0.0896    6.7115    4.1162 O   0  0  0  0  0  0  0  0  0  0  0  0
    2.4189    6.3743    3.9282 C   0  0  0  0  0  0  0  0  0  0  0  0
    0.9882    4.1623    5.9175 C   0  0  0  0  0  0  0  0  0  0  0  0
    0.1105    5.0401    6.7952 C   0  0  0  0  0  0  0  0  0  0  0  0
   -1.1418    4.5834    7.1930 C   0  0  0  0  0  0  0  0  0  0  0  0
   -1.9421    5.3901    7.9955 C   0  0  0  0  0  0  0  0  0  0  0  0
   -1.4879    6.6425    8.3952 C   0  0  0  0  0  0  0  0  0  0  0  0
   -0.2350    7.0881    7.9921 C   0  0  0  0  0  0  0  0  0  0  0  0
    0.5744    6.2911    7.1892 C   0  0  0  0  0  0  0  0  0  0  0  0
    1.8487    1.8487    1.8487 C   0  0  0  0  0  0  0  0  0  0  0  0
    1.0000    1.0000    1.0000 N   0  0  0  0  0  0  0  0  0  0  0  0
    1.8487    0.1513    0.1513 C   0  0  0  0  0  0  0  0  0  0  0  0
    2.7264    1.0290   -0.7264 C   0  0  0  0  0  0  0  0  0  0  0  0
    3.6392    0.2303   -1.6392 C   0  0  0  0  0  0  0  0  0  0  0  0
    3.3820    1.2949   -2.6899 C   0  0  0  0  0  0  0  0  0  0  0  0
    2.0565    1.4953   -2.0016 C   0  0  0  0  0  0  0  0  0  0  0  0
    0.9711   -0.7263   -0.7263 C   0  0  0  0  0  0  0  0  0  0  0  0
    0.0936   -1.6038    0.1513 C   0  0  0  0  0  0  0  0  0  0  0  0
   -0.7840   -2.4814   -0.7263 C   0  0  0  0  0  0  0  0  0  0  0  0
   -1.6616   -3.3590    0.1513 C   0  0  0  0  0  0  0  0  0  0  0  0
  1  2  2  0
  2  3  1  0
  3  4  1  0
  4  5  1  0
  5  6  2  0
  5  7  1  0
  4  8  1  0
  8  9  1  0
  9 10  2  0
 10 11  1  0
 11 12  2  0
 12 13  1  0
 13 14  2  0
 14  9  1  0
  2 15  1  0
 15 16  1  0
 16 17  1  0
 17 18  1  0
 18 19  1  0
 19 20  1  0
 20 21  1  0
 21 18  1  0
 17 22  1  0
 22 23  1  0
 23 24  1  0
 24 25  1  0
M  CHG  1  16   1
M  END
$$$$
s_512____6108006____10211702
     RDKit          3D

 22 23  0  0  0  0  0  0  0  0999 V2000
    6.2097   -0.2187   -3.2546 Cl  0  0  0  0  0  0  0  0  0  0  0  0
    4.7316   -0.7226   -2.4003 C   0  0  0  0  0  0  0  0  0  0  0  0
    4.5174   -0.3105   -1.0892 C   0  0  0  0  0  0  0  0  0  0  0  0
    5.4291    0.4689   -0.4690 O   0  0  0  0  0  0  0  0  0  0  0  0
    3.3584   -0.7120   -0.4336 C   0  0  0  0  0  0  0  0  0  0  0  0
    2.4194   -1.5151   -1.0723 C   0  0  0  0  0  0  0  0  0  0  0  0
    2.6522   -1.9160   -2.3836 C   0  0  0  0  0  0  0  0  0  0  0  0
    1.4588   -2.9440   -3.2125 Cl  0  0  0  0  0  0  0  0  0  0  0  0
    3.8051   -1.5256   -3.0573 C   0  0  0  0  0  0  0  0  0  0  0  0
    3.1050   -0.2731    1.0000 C   0  0  0  0  0  0  0  0  0  0  0  0
    2.3700    1.0000    1.0000 N   0  0  0  0  0  0  0  0  0  0  0  0
    1.0000    1.0000    1.0000 C   0  0  0  0  0  0  0  0  0  0  0  0
    0.4000   -0.0392    1.0000 O   0  0  0  0  0  0  0  0  0  0  0  0
    0.3150    2.1865    1.0000 N   0  0  0  0  0  0  0  0  0  0  0  0
   -1.1552    2.1865    1.0000 C   0  0  0  0  0  0  0  0  0  0  0  0
   -1.6373    2.9075   -0.2488 C   0  0  0  0  0  0  0  0  0  0  0  0
   -3.1566    3.0278   -0.3061 C   0  0  0  0  0  0  0  0  0  0  0  0
   -3.7109    4.0857    0.6448 C   0  0  0  0  0  0  0  0  0  0  0  0
   -4.0904    3.5674    2.0273 C   0  0  0  0  0  0  0  0  0  0  0  0
   -3.0966    2.5666    2.6057 C   0  0  0  0  0  0  0  0  0  0  0  0
   -1.6395    2.8679    2.2711 C   0  0  0  0  0  0  0  0  0  0  0  0
   -1.1727    2.1243   -1.4664 C   0  0  0  0  0  0  0  0  0  0  0  0
  1  2  1  0
  2  3  2  0
  3  4  1  0
  3  5  1  0
  5  6  2  0
  6  7  1  0
  7  8  1  0
  7  9  2  0
  9  2  1  0
  5 10  1  0
 10 11  1  0
 11 12  1  0
 12 13  2  0
 12 14  1  0
 14 15  1  0
 15 16  1  0
 16 17  1  0
 17 18  1  0
 18 19  1  0
 19 20  1  0
 20 21  1  0
 21 15  1  0
 16 22  1  0
M  END
$$$$
s_2708____908366____11566486
     RDKit          3D

 28 29  0  0  0  0  0  0  0  0999 V2000
    1.9588   -5.7469    2.1269 F   0  0  0  0  0  0  0  0  0  0  0  0
    2.6743   -4.8985    1.3945 C   0  0  0  0  0  0  0  0  0  0  0  0
    3.8889   -5.3128    0.8562 C   0  0  0  0  0  0  0  0  0  0  0  0
    4.3338   -6.5682    1.0799 O   0  0  0  0  0  0  0  0  0  0  0  0
    5.5733   -6.9906    0.5305 C   0  0  0  0  0  0  0  0  0  0  0  0
    4.6545   -4.4436    0.0860 C   0  0  0  0  0  0  0  0  0  0  0  0
    4.1914   -3.1517   -0.1410 C   0  0  0  0  0  0  0  0  0  0  0  0
    2.9765   -2.7434    0.3998 C   0  0  0  0  0  0  0  0  0  0  0  0
    2.2070   -3.6081    1.1702 C   0  0  0  0  0  0  0  0  0  0  0  0
    2.4700   -1.3325    0.1511 C   0  0  0  0  0  0  0  0  0  0  0  0
    2.9767   -0.4113    1.2488 C   0  0  0  0  0  0  0  0  0  0  0  0
    4.4967   -0.4113    1.2488 C   0  0  0  0  0  0  0  0  0  0  0  0
    5.0967   -0.7667    2.2254 O   0  0  0  0  0  0  0  0  0  0  0  0
    5.1817   -0.0055    0.1339 N   0  0  0  0  0  0  0  0  0  0  0  0
    6.6517   -0.0055    0.1339 C   0  0  0  0  0  0  0  0  0  0  0  0
    2.4700    1.0000    1.0000 C   0  0  0  0  0  0  0  0  0  0  0  0
    1.0000    1.0000    1.0000 N   0  0  0  0  0  0  0  0  0  0  0  0
    0.3150    1.0000    2.1865 C   0  0  0  0  0  0  0  0  0  0  0  0
    0.9150    1.0000    3.2257 O   0  0  0  0  0  0  0  0  0  0  0  0
   -1.0550    1.0000    2.1865 N   0  0  0  0  0  0  0  0  0  0  0  0
   -1.7899    1.0000    3.4593 C   0  0  0  0  0  0  0  0  0  0  0  0
   -2.6698   -0.2357    3.5566 C   0  0  0  0  0  0  0  0  0  0  0  0
   -3.4332   -0.2279    4.8711 C   0  0  0  0  0  0  0  0  0  0  0  0
   -4.2901    1.0233    4.9756 C   0  0  0  0  0  0  0  0  0  0  0  0
   -3.4094    2.2586    4.8783 C   0  0  0  0  0  0  0  0  0  0  0  0
   -2.6422    2.2543    3.5661 C   0  0  0  0  0  0  0  0  0  0  0  0
   -1.8116   -1.4862    3.4557 C   0  0  0  0  0  0  0  0  0  0  0  0
   -2.6971   -2.7177    3.5536 C   0  0  0  0  0  0  0  0  0  0  0  0
  1  2  1  0
  2  3  2  0
  3  4  1  0
  4  5  1  0
  3  6  1  0
  6  7  2  0
  7  8  1  0
  8  9  2  0
  9  2  1  0
  8 10  1  0
 10 11  1  0
 11 12  1  0
 12 13  2  0
 12 14  1  0
 14 15  1  0
 11 16  1  0
 16 17  1  0
 17 18  1  0
 18 19  2  0
 18 20  1  0
 20 21  1  0
 21 22  1  0
 22 23  1  0
 23 24  1  0
 24 25  1  0
 25 26  1  0
 26 21  1  0
 22 27  1  0
 27 28  1  0
M  END
$$$$
s_1458____474620____16618802
     RDKit          3D

 24 25  0  0  0  0  0  0  0  0999 V2000
    0.4000    1.0000   -0.0392 O   0  0  0  0  0  0  0  0  0  0  0  0
    1.0000    1.0000    1.0000 C   0  0  0  0  0  0  0  0  0  0  0  0
    0.3450    1.0000    2.1345 O   0  0  0  0  0  0  0  0  0  0  0  0
   -1.0750    1.0000    2.1345 C   0  0  0  0  0  0  0  0  0  0  0  0
   -1.5817    2.4331    2.1345 C   0  0  0  0  0  0  0  0  0  0  0  0
   -3.1052    2.4331    2.1345 C   0  0  0  0  0  0  0  0  0  0  0  0
   -3.6769    1.7311    3.3504 C   0  0  0  0  0  0  0  0  0  0  0  0
   -4.7611    1.2125    2.4314 C   0  0  0  0  0  0  0  0  0  0  0  0
   -3.7367    1.3271    1.3177 C   0  0  0  0  0  0  0  0  0  0  0  0
   -1.0750    3.1496    3.3756 C   0  0  0  0  0  0  0  0  0  0  0  0
    2.5200    1.0000    1.0000 C   0  0  0  0  0  0  0  0  0  0  0  0
    3.0267    1.4901   -0.3466 C   0  0  0  0  0  0  0  0  0  0  0  0
    4.4967    1.4901   -0.3466 N   0  0  0  0  0  0  0  0  0  0  0  0
    5.1817    0.7275   -1.2555 C   0  0  0  0  0  0  0  0  0  0  0  0
    4.5817    0.0595   -2.0516 O   0  0  0  0  0  0  0  0  0  0  0  0
    6.7017    0.7275   -1.2555 C   0  0  0  0  0  0  0  0  0  0  0  0
    2.5200    2.9015   -0.5955 C   0  0  0  0  0  0  0  0  0  0  0  0
    2.8191    3.9070    0.3179 C   0  0  0  0  0  0  0  0  0  0  0  0
    2.3582    5.2000    0.0940 C   0  0  0  0  0  0  0  0  0  0  0  0
    1.6033    5.4713   -1.0428 C   0  0  0  0  0  0  0  0  0  0  0  0
    1.1538    6.7248   -1.2639 O   0  0  0  0  0  0  0  0  0  0  0  0
    0.0738    6.9441   -2.1594 C   0  0  0  0  0  0  0  0  0  0  0  0
    1.3011    4.4693   -1.9593 C   0  0  0  0  0  0  0  0  0  0  0  0
    1.7649    3.1782   -1.7306 C   0  0  0  0  0  0  0  0  0  0  0  0
  1  2  2  0
  2  3  1  0
  3  4  1  0
  4  5  1  0
  5  6  1  0
  6  7  1  0
  7  8  1  0
  8  9  1  0
  9  6  1  0
  5 10  1  0
  2 11  1  0
 11 12  1  0
 12 13  1  0
 13 14  1  0
 14 15  2  0
 14 16  1  0
 12 17  1  0
 17 18  2  0
 18 19  1  0
 19 20  2  0
 20 21  1  0
 21 22  1  0
 20 23  1  0
 23 24  2  0
 24 17  1  0
M  END
$$$$
s_2708____9163340____14190262
     RDKit          3D

 23 24  0  0  0  0  0  0  0  0999 V2000
    0.9150    1.0000    3.2257 O   0  0  0  0  0  0  0  0  0  0  0  0
    0.3150    1.0000    2.1865 C   0  0  0  0  0  0  0  0  0  0  0  0
   -1.0550    1.0000    2.1865 N   0  0  0  0  0  0  0  0  0  0  0  0
   -1.7899    1.0000    3.4594 C   0  0  0  0  0  0  0  0  0  0  0  0
   -2.6844   -0.2255    3.5936 C   0  0  0  0  0  0  0  0  0  0  0  0
   -3.9814   -0.1592    2.7949 C   0  0  0  0  0  0  0  0  0  0  0  0
   -5.0986    0.3326    3.6996 C   0  0  0  0  0  0  0  0  0  0  0  0
   -5.0399    1.8295    3.9819 C   0  0  0  0  0  0  0  0  0  0  0  0
   -3.7081    2.2728    4.5731 C   0  0  0  0  0  0  0  0  0  0  0  0
   -2.5955    2.2966    3.5349 C   0  0  0  0  0  0  0  0  0  0  0  0
   -6.4298    0.0337    3.0288 C   0  0  0  0  0  0  0  0  0  0  0  0
    1.0000    1.0000    1.0000 N   0  0  0  0  0  0  0  0  0  0  0  0
    2.4700    1.0000    1.0000 C   0  0  0  0  0  0  0  0  0  0  0  0
    2.9768   -0.4333    1.0000 C   0  0  0  0  0  0  0  0  0  0  0  0
    3.2029   -1.0730   -0.2143 C   0  0  0  0  0  0  0  0  0  0  0  0
    3.6671   -2.3842   -0.2105 C   0  0  0  0  0  0  0  0  0  0  0  0
    3.9048   -3.0542    0.9851 C   0  0  0  0  0  0  0  0  0  0  0  0
    3.6724   -2.3960    2.1885 C   0  0  0  0  0  0  0  0  0  0  0  0
    3.2082   -1.0849    2.2070 C   0  0  0  0  0  0  0  0  0  0  0  0
    3.9177   -3.0953   -1.5306 C   0  0  0  0  0  0  0  0  0  0  0  0
    3.6073   -2.2210   -2.6055 O   0  0  0  0  0  0  0  0  0  0  0  0
    5.3791   -3.5046   -1.6162 C   0  0  0  0  0  0  0  0  0  0  0  0
    3.0392   -4.3329   -1.6142 C   0  0  0  0  0  0  0  0  0  0  0  0
  1  2  2  0
  2  3  1  0
  3  4  1  0
  4  5  1  0
  5  6  1  0
  6  7  1  0
  7  8  1  0
  8  9  1  0
  9 10  1  0
 10  4  1  0
  7 11  1  0
  2 12  1  0
 12 13  1  0
 13 14  1  0
 14 15  2  0
 15 16  1  0
 16 17  2  0
 17 18  1  0
 18 19  2  0
 19 14  1  0
 16 20  1  0
 20 21  1  0
 20 22  1  0
 20 23  1  0
M  END
$$$$
s_512____8902436____9820830
     RDKit          3D

 26 27  0  0  0  0  0  0  0  0999 V2000
   -2.3440    0.7176    2.2637 Cl  0  0  0  0  0  0  0  0  0  0  0  0
   -1.1474   -0.3103    3.0888 C   0  0  0  0  0  0  0  0  0  0  0  0
    0.0116   -0.7119    2.4333 C   0  0  0  0  0  0  0  0  0  0  0  0
    0.9397   -1.5145    3.0894 C   0  0  0  0  0  0  0  0  0  0  0  0
    0.7082   -1.9159    4.4013 C   0  0  0  0  0  0  0  0  0  0  0  0
   -0.4546   -1.5088    5.0471 C   0  0  0  0  0  0  0  0  0  0  0  0
   -0.7523   -2.0221    6.7255 Cl  0  0  0  0  0  0  0  0  0  0  0  0
   -1.3885   -0.7061    4.4004 C   0  0  0  0  0  0  0  0  0  0  0  0
    0.2650   -0.2731    1.0000 C   0  0  0  0  0  0  0  0  0  0  0  0
    1.0000    1.0000    1.0000 N   0  0  0  0  0  0  0  0  0  0  0  0
    2.3700    1.0000    1.0000 C   0  0  0  0  0  0  0  0  0  0  0  0
    2.9700    2.0392    1.0000 O   0  0  0  0  0  0  0  0  0  0  0  0
    3.0550   -0.1865    1.0000 N   0  0  0  0  0  0  0  0  0  0  0  0
    4.5250   -0.1865    1.0000 C   0  0  0  0  0  0  0  0  0  0  0  0
    5.0317   -0.9030    2.2411 C   0  0  0  0  0  0  0  0  0  0  0  0
    4.5250   -0.1865    3.4821 C   0  0  0  0  0  0  0  0  0  0  0  0
    5.0319   -0.9033    4.7237 C   0  0  0  0  0  0  0  0  0  0  0  0
    6.5322   -0.9231    4.7580 C   0  0  0  0  0  0  0  0  0  0  0  0
    5.7732   -2.1668    4.3940 C   0  0  0  0  0  0  0  0  0  0  0  0
    5.0317   -0.9030   -0.2411 C   0  0  0  0  0  0  0  0  0  0  0  0
    0.2650    2.2731    1.0000 C   0  0  0  0  0  0  0  0  0  0  0  0
    0.0117    2.7118   -0.4331 C   0  0  0  0  0  0  0  0  0  0  0  0
   -0.7233    3.9849   -0.4331 N   0  0  0  0  0  0  0  0  0  0  0  0
   -1.0658    4.5781   -1.6195 C   0  0  0  0  0  0  0  0  0  0  0  0
   -0.7658    4.0585   -2.6588 O   0  0  0  0  0  0  0  0  0  0  0  0
   -1.8258    5.8945   -1.6195 C   0  0  0  0  0  0  0  0  0  0  0  0
  1  2  1  0
  2  3  2  0
  3  4  1  0
  4  5  2  0
  5  6  1  0
  6  7  1  0
  6  8  2  0
  8  2  1  0
  3  9  1  0
  9 10  1  0
 10 11  1  0
 11 12  2  0
 11 13  1  0
 13 14  1  0
 14 15  1  0
 15 16  1  0
 16 17  1  0
 17 18  1  0
 18 19  1  0
 19 17  1  0
 14 20  1  0
 10 21  1  0
 21 22  1  0
 22 23  1  0
 23 24  1  0
 24 25  2  0
 24 26  1  0
M  END
$$$$
s_240690a____7347544____12624318
     RDKit          3D

 22 23  0  0  0  0  0  0  0  0999 V2000
   -3.5596    2.9626    3.1573 Br  0  0  0  0  0  0  0  0  0  0  0  0
   -2.3485    1.4914    2.6994 C   0  0  0  0  0  0  0  0  0  0  0  0
   -1.1548    1.7629    2.0397 C   0  0  0  0  0  0  0  0  0  0  0  0
   -0.3061    0.7074    1.7209 C   0  0  0  0  0  0  0  0  0  0  0  0
   -0.6365   -0.6023    2.0520 C   0  0  0  0  0  0  0  0  0  0  0  0
   -1.8357   -0.8516    2.7112 C   0  0  0  0  0  0  0  0  0  0  0  0
   -2.6984    0.1889    3.0392 C   0  0  0  0  0  0  0  0  0  0  0  0
    1.0000    1.0000    1.0000 C   0  0  0  0  0  0  0  0  0  0  0  0
    1.8487    1.8487    1.8487 N   0  0  0  0  0  0  0  0  0  0  0  0
    3.0831    1.4052    2.2442 C   0  0  0  0  0  0  0  0  0  0  0  0
    3.4716    0.3240    1.8978 O   0  0  0  0  0  0  0  0  0  0  0  0
    3.9607    2.2828    3.1218 C   0  0  0  0  0  0  0  0  0  0  0  0
    0.7075    1.7208   -0.3059 C   0  0  0  0  0  0  0  0  0  0  0  0
    0.9606    2.8886   -0.4164 O   0  0  0  0  0  0  0  0  0  0  0  0
    0.1433    1.0231   -1.3785 N   0  0  0  0  0  0  0  0  0  0  0  0
   -0.2299    1.7748   -2.5886 C   0  0  0  0  0  0  0  0  0  0  0  0
   -1.4546    1.1867   -3.2751 C   0  0  0  0  0  0  0  0  0  0  0  0
   -1.3785   -0.3293   -3.3913 C   0  0  0  0  0  0  0  0  0  0  0  0
   -2.6394   -0.8000   -3.9828 N   0  0  0  0  0  0  0  0  0  0  0  0
   -1.2851   -0.9157   -1.9894 C   0  0  0  0  0  0  0  0  0  0  0  0
   -0.0523   -0.4296   -1.2397 C   0  0  0  0  0  0  0  0  0  0  0  0
   -1.5862    1.8317   -4.6455 C   0  0  0  0  0  0  0  0  0  0  0  0
  1  2  1  0
  2  3  2  0
  3  4  1  0
  4  5  2  0
  5  6  1  0
  6  7  2  0
  7  2  1  0
  4  8  1  0
  8  9  1  0
  9 10  1  0
 10 11  2  0
 10 12  1  0
  8 13  1  0
 13 14  2  0
 13 15  1  0
 15 16  1  0
 16 17  1  0
 17 18  1  0
 18 19  1  0
 18 20  1  0
 20 21  1  0
 21 15  1  0
 17 22  1  0
M  CHG  1  19   1
M  END
$$$$
s_2708____14785312____8804248
     RDKit          3D

 25 27  0  0  0  0  0  0  0  0999 V2000
    0.9720   -5.6788    4.6716 F   0  0  0  0  0  0  0  0  0  0  0  0
    2.1166   -5.3997    4.0526 C   0  0  0  0  0  0  0  0  0  0  0  0
    2.2423   -4.2130    3.3381 C   0  0  0  0  0  0  0  0  0  0  0  0
    3.4465   -3.9406    2.6972 C   0  0  0  0  0  0  0  0  0  0  0  0
    3.5784   -2.7485    1.9761 N   0  0  0  0  0  0  0  0  0  0  0  0
    4.1838   -1.6376    2.5760 C   0  0  0  0  0  0  0  0  0  0  0  0
    4.6377   -1.6851    3.7068 O   0  0  0  0  0  0  0  0  0  0  0  0
    4.2747   -0.3176    1.8313 C   0  0  0  0  0  0  0  0  0  0  0  0
    3.0701   -0.2126    1.0000 N   0  0  0  0  0  0  0  0  0  0  0  0
    2.3700    1.0000    1.0000 C   0  0  0  0  0  0  0  0  0  0  0  0
    2.9700    2.0392    1.0000 O   0  0  0  0  0  0  0  0  0  0  0  0
    1.0000    1.0000    1.0000 N   0  0  0  0  0  0  0  0  0  0  0  0
    0.2655    2.2721    1.0000 C   0  0  0  0  0  0  0  0  0  0  0  0
   -0.0256    2.7763   -0.4014 C   0  0  0  0  0  0  0  0  0  0  0  0
    1.2191    3.3711   -1.0398 C   0  0  0  0  0  0  0  0  0  0  0  0
    0.8853    3.8629   -2.4388 C   0  0  0  0  0  0  0  0  0  0  0  0
    1.7132    4.5360   -0.1977 C   0  0  0  0  0  0  0  0  0  0  0  0
   -1.0879    3.8377   -0.1654 C   0  0  0  0  0  0  0  0  0  0  0  0
   -1.7910    3.4261    1.1147 C   0  0  0  0  0  0  0  0  0  0  0  0
   -1.1462    2.1151    1.5284 C   0  0  0  0  0  0  0  0  0  0  0  0
    2.5585   -1.3174    0.1709 C   0  0  0  0  0  0  0  0  0  0  0  0
    3.0732   -2.6882    0.5896 C   0  0  0  0  0  0  0  0  0  0  0  0
    4.5106   -4.8339    2.7645 C   0  0  0  0  0  0  0  0  0  0  0  0
    4.3700   -6.0177    3.4800 C   0  0  0  0  0  0  0  0  0  0  0  0
    3.1720   -6.3016    4.1261 C   0  0  0  0  0  0  0  0  0  0  0  0
  1  2  1  0
  2  3  2  0
  3  4  1  0
  4  5  1  0
  5  6  1  0
  6  7  2  0
  6  8  1  0
  8  9  1  0
  9 10  1  0
 10 11  2  0
 10 12  1  0
 12 13  1  0
 13 14  1  0
 14 15  1  0
 15 16  1  0
 15 17  1  0
 14 18  1  0
 18 19  1  0
 19 20  1  0
 20 13  1  0
  9 21  1  0
 21 22  1  0
 22  5  1  0
  4 23  2  0
 23 24  1  0
 24 25  2  0
 25  2  1  0
M  END
$$$$
s_2708____11569280____12214562
     RDKit          3D

 27 29  0  0  0  0  0  0  0  0999 V2000
    4.1399    6.3669    5.6527 F   0  0  0  0  0  0  0  0  0  0  0  0
    3.3989    5.4805    4.9932 C   0  0  0  0  0  0  0  0  0  0  0  0
    3.0177    5.7375    3.6803 C   0  0  0  0  0  0  0  0  0  0  0  0
    2.2420    4.8063    2.9973 C   0  0  0  0  0  0  0  0  0  0  0  0
    1.8576    3.6310    3.6341 C   0  0  0  0  0  0  0  0  0  0  0  0
    2.2420    3.3791    4.9466 C   0  0  0  0  0  0  0  0  0  0  0  0
    3.0178    4.3063    5.6343 C   0  0  0  0  0  0  0  0  0  0  0  0
    1.0100    2.6179    2.8824 C   0  0  0  0  0  0  0  0  0  0  0  0
    1.8776    1.8776    1.8776 C   0  0  0  0  0  0  0  0  0  0  0  0
    2.8824    1.0100    2.6179 C   0  0  0  0  0  0  0  0  0  0  0  0
    2.5270    0.3416    3.5489 O   0  0  0  0  0  0  0  0  0  0  0  0
    4.1939    0.9912    2.2222 N   0  0  0  0  0  0  0  0  0  0  0  0
    5.0913   -0.0696    2.7021 C   0  0  0  0  0  0  0  0  0  0  0  0
    4.7037    2.0318    1.3177 C   0  0  0  0  0  0  0  0  0  0  0  0
    1.0000    1.0000    1.0000 C   0  0  0  0  0  0  0  0  0  0  0  0
    1.8487    0.1513    0.1513 N   0  0  0  0  0  0  0  0  0  0  0  0
    2.0760   -1.1545    0.4979 C   0  0  0  0  0  0  0  0  0  0  0  0
    1.5116   -1.6312    1.4436 O   0  0  0  0  0  0  0  0  0  0  0  0
    2.9475   -1.9161   -0.2351 N   0  0  0  0  0  0  0  0  0  0  0  0
    3.1921   -3.3214    0.1379 C   0  0  0  0  0  0  0  0  0  0  0  0
    2.2650   -4.3271   -0.5168 C   0  0  0  0  0  0  0  0  0  0  0  0
    3.4812   -5.2106   -0.6186 C   0  0  0  0  0  0  0  0  0  0  0  0
    4.3147   -3.9477   -0.6633 C   0  0  0  0  0  0  0  0  0  0  0  0
    1.0774   -4.7804    0.3016 C   0  0  0  0  0  0  0  0  0  0  0  0
    0.1933   -5.5497   -0.6578 C   0  0  0  0  0  0  0  0  0  0  0  0
    0.5316   -5.0100   -2.0397 C   0  0  0  0  0  0  0  0  0  0  0  0
    1.5692   -3.9331   -1.8045 C   0  0  0  0  0  0  0  0  0  0  0  0
  1  2  1  0
  2  3  2  0
  3  4  1  0
  4  5  2  0
  5  6  1  0
  6  7  2  0
  7  2  1  0
  5  8  1  0
  8  9  1  0
  9 10  1  0
 10 11  2  0
 10 12  1  0
 12 13  1  0
 12 14  1  0
  9 15  1  0
 15 16  1  0
 16 17  1  0
 17 18  2  0
 17 19  1  0
 19 20  1  0
 20 21  1  0
 21 22  1  0
 22 23  1  0
 23 20  1  0
 21 24  1  0
 24 25  1  0
 25 26  1  0
 26 27  1  0
 27 21  1  0
M  END
$$$$
s_2708____11569280____5343582
     RDKit          3D

 28 28  0  0  0  0  0  0  0  0999 V2000
    2.4056   -1.1354   -5.0370 F   0  0  0  0  0  0  0  0  0  0  0  0
    2.9591   -0.6347   -3.9359 C   0  0  0  0  0  0  0  0  0  0  0  0
    4.0087   -1.3093   -3.3208 C   0  0  0  0  0  0  0  0  0  0  0  0
    4.5819   -0.7799   -2.1691 C   0  0  0  0  0  0  0  0  0  0  0  0
    4.0999    0.4157   -1.6470 C   0  0  0  0  0  0  0  0  0  0  0  0
    3.0506    1.0861   -2.2665 C   0  0  0  0  0  0  0  0  0  0  0  0
    2.4738    0.5619   -3.4184 C   0  0  0  0  0  0  0  0  0  0  0  0
    4.7304    0.9885   -0.3884 C   0  0  0  0  0  0  0  0  0  0  0  0
    4.5806   -0.0062    0.7512 C   0  0  0  0  0  0  0  0  0  0  0  0
    5.2112    0.5667    2.0099 C   0  0  0  0  0  0  0  0  0  0  0  0
    4.8036    1.5975    2.4695 O   0  0  0  0  0  0  0  0  0  0  0  0
    6.2449   -0.0939    2.6199 N   0  0  0  0  0  0  0  0  0  0  0  0
    6.7441   -1.3567    2.0569 C   0  0  0  0  0  0  0  0  0  0  0  0
    6.8547    0.4601    3.8372 C   0  0  0  0  0  0  0  0  0  0  0  0
    3.1050   -0.2731    1.0000 C   0  0  0  0  0  0  0  0  0  0  0  0
    2.3700    1.0000    1.0000 N   0  0  0  0  0  0  0  0  0  0  0  0
    1.0000    1.0000    1.0000 C   0  0  0  0  0  0  0  0  0  0  0  0
    0.4000   -0.0392    1.0000 O   0  0  0  0  0  0  0  0  0  0  0  0
    0.3150    2.1865    1.0000 N   0  0  0  0  0  0  0  0  0  0  0  0
   -1.1550    2.1865    1.0000 C   0  0  0  0  0  0  0  0  0  0  0  0
   -1.6617    2.9030   -0.2411 C   0  0  0  0  0  0  0  0  0  0  0  0
   -3.1817    2.9030   -0.2411 C   0  0  0  0  0  0  0  0  0  0  0  0
   -1.1550    4.3361   -0.2411 C   0  0  0  0  0  0  0  0  0  0  0  0
   -1.1550    2.1865   -1.4821 C   0  0  0  0  0  0  0  0  0  0  0  0
   -1.6617    2.9030    2.2411 C   0  0  0  0  0  0  0  0  0  0  0  0
   -1.1550    2.1865    3.4821 C   0  0  0  0  0  0  0  0  0  0  0  0
   -1.6617    2.9030    4.7232 C   0  0  0  0  0  0  0  0  0  0  0  0
   -1.6617    0.7534    3.4821 C   0  0  0  0  0  0  0  0  0  0  0  0
  1  2  1  0
  2  3  2  0
  3  4  1  0
  4  5  2  0
  5  6  1  0
  6  7  2  0
  7  2  1  0
  5  8  1  0
  8  9  1  0
  9 10  1  0
 10 11  2  0
 10 12  1  0
 12 13  1  0
 12 14  1  0
  9 15  1  0
 15 16  1  0
 16 17  1  0
 17 18  2  0
 17 19  1  0
 19 20  1  0
 20 21  1  0
 21 22  1  0
 21 23  1  0
 21 24  1  0
 20 25  1  0
 25 26  1  0
 26 27  1  0
 26 28  1  0
M  END
$$$$
s_512____13611284____11973834
     RDKit          3D

 23 24  0  0  0  0  0  0  0  0999 V2000
    4.3409    5.5892   -1.6391 F   0  0  0  0  0  0  0  0  0  0  0  0
    3.8961    4.5040   -1.0112 C   0  0  0  0  0  0  0  0  0  0  0  0
    3.3709    4.6136    0.2723 C   0  0  0  0  0  0  0  0  0  0  0  0
    2.9086    3.4742    0.9229 C   0  0  0  0  0  0  0  0  0  0  0  0
    2.9766    2.2409    0.2836 C   0  0  0  0  0  0  0  0  0  0  0  0
    3.5022    2.1373   -0.9998 C   0  0  0  0  0  0  0  0  0  0  0  0
    3.9656    3.2731   -1.6554 C   0  0  0  0  0  0  0  0  0  0  0  0
    2.4700    1.0000    1.0000 C   0  0  0  0  0  0  0  0  0  0  0  0
    1.0000    1.0000    1.0000 N   0  0  0  0  0  0  0  0  0  0  0  0
    0.3150    1.0000    2.1865 C   0  0  0  0  0  0  0  0  0  0  0  0
    0.9150    1.0000    3.2257 O   0  0  0  0  0  0  0  0  0  0  0  0
   -1.0550    1.0000    2.1865 N   0  0  0  0  0  0  0  0  0  0  0  0
   -1.7898    1.0000    3.4591 C   0  0  0  0  0  0  0  0  0  0  0  0
   -2.6678   -0.2374    3.5511 C   0  0  0  0  0  0  0  0  0  0  0  0
   -3.4332   -0.2395    4.8645 C   0  0  0  0  0  0  0  0  0  0  0  0
   -4.2866    1.0137    4.9743 C   0  0  0  0  0  0  0  0  0  0  0  0
   -4.9970    1.0116    6.2033 O   0  0  0  0  0  0  0  0  0  0  0  0
   -3.4082    2.2510    4.8818 C   0  0  0  0  0  0  0  0  0  0  0  0
   -2.6456    2.2515    3.5667 C   0  0  0  0  0  0  0  0  0  0  0  0
   -4.3115   -1.4768    4.9530 C   0  0  0  0  0  0  0  0  0  0  0  0
    2.9767   -0.2411    0.2835 C   0  0  0  0  0  0  0  0  0  0  0  0
    4.3955   -0.2706    0.3338 O   0  0  0  0  0  0  0  0  0  0  0  0
    4.8688   -1.4301   -0.3356 C   0  0  0  0  0  0  0  0  0  0  0  0
  1  2  1  0
  2  3  2  0
  3  4  1  0
  4  5  2  0
  5  6  1  0
  6  7  2  0
  7  2  1  0
  5  8  1  0
  8  9  1  0
  9 10  1  0
 10 11  2  0
 10 12  1  0
 12 13  1  0
 13 14  1  0
 14 15  1  0
 15 16  1  0
 16 17  1  0
 16 18  1  0
 18 19  1  0
 19 13  1  0
 15 20  1  0
  8 21  1  0
 21 22  1  0
 22 23  1  0
M  END
$$$$
s_2230a____7638982____666216
     RDKit          3D

 24 25  0  0  0  0  0  0  0  0999 V2000
    0.4000    1.0000   -0.0392 O   0  0  0  0  0  0  0  0  0  0  0  0
    1.0000    1.0000    1.0000 C   0  0  0  0  0  0  0  0  0  0  0  0
    0.3150    1.0000    2.1865 N   0  0  0  0  0  0  0  0  0  0  0  0
   -1.1550    1.0000    2.1865 C   0  0  0  0  0  0  0  0  0  0  0  0
   -1.6617    1.7165    3.4275 C   0  0  0  0  0  0  0  0  0  0  0  0
   -1.8617    1.0994    4.4370 O   0  0  0  0  0  0  0  0  0  0  0  0
   -1.9150    3.2148    3.3899 C   0  0  0  0  0  0  0  0  0  0  0  0
   -1.6617   -0.4331    2.1865 C   0  0  0  0  0  0  0  0  0  0  0  0
   -3.1359   -0.4493    1.8155 C   0  0  0  0  0  0  0  0  0  0  0  0
   -3.5267   -0.0924    0.5291 C   0  0  0  0  0  0  0  0  0  0  0  0
   -4.8768   -0.1078    0.1941 C   0  0  0  0  0  0  0  0  0  0  0  0
   -5.8244   -0.4796    1.1419 C   0  0  0  0  0  0  0  0  0  0  0  0
   -5.4224   -0.8347    2.4237 C   0  0  0  0  0  0  0  0  0  0  0  0
   -4.0755   -0.8227    2.7712 C   0  0  0  0  0  0  0  0  0  0  0  0
    2.5200    1.0000    1.0000 C   0  0  0  0  0  0  0  0  0  0  0  0
    3.0105   -0.3873    1.0000 N   0  0  0  0  0  0  0  0  0  0  0  0
    2.5386   -1.1133   -0.1898 C   0  0  0  0  0  0  0  0  0  0  0  0
    3.0621   -2.5416   -0.2172 C   0  0  0  0  0  0  0  0  0  0  0  0
    2.5634   -3.2933   -1.4406 C   0  0  0  0  0  0  0  0  0  0  0  0
    1.1441   -3.3348   -1.4246 O   0  0  0  0  0  0  0  0  0  0  0  0
    3.1119   -4.7108   -1.4226 C   0  0  0  0  0  0  0  0  0  0  0  0
    2.6293   -3.2652    1.0481 C   0  0  0  0  0  0  0  0  0  0  0  0
    3.1392   -2.4969    2.2568 C   0  0  0  0  0  0  0  0  0  0  0  0
    2.6095   -1.0720    2.2380 C   0  0  0  0  0  0  0  0  0  0  0  0
  1  2  2  0
  2  3  1  0
  3  4  1  0
  4  5  1  0
  5  6  2  0
  5  7  1  0
  4  8  1  0
  8  9  1  0
  9 10  2  0
 10 11  1  0
 11 12  2  0
 12 13  1  0
 13 14  2  0
 14  9  1  0
  2 15  1  0
 15 16  1  0
 16 17  1  0
 17 18  1  0
 18 19  1  0
 19 20  1  0
 19 21  1  0
 18 22  1  0
 22 23  1  0
 23 24  1  0
 24 16  1  0
M  CHG  1  16   1
M  END
$$$$
s_22____16911156____14652054
     RDKit          3D

 25 26  0  0  0  0  0  0  0  0999 V2000
    5.0238   -1.5710   -4.7992 Br  0  0  0  0  0  0  0  0  0  0  0  0
    4.4193   -1.1648   -2.9796 C   0  0  0  0  0  0  0  0  0  0  0  0
    3.1759   -1.6166   -2.5496 C   0  0  0  0  0  0  0  0  0  0  0  0
    2.7523   -1.3252   -1.2571 C   0  0  0  0  0  0  0  0  0  0  0  0
    3.5738   -0.5874   -0.4112 C   0  0  0  0  0  0  0  0  0  0  0  0
    4.8163   -0.1386   -0.8477 C   0  0  0  0  0  0  0  0  0  0  0  0
    5.2465   -0.4261   -2.1391 C   0  0  0  0  0  0  0  0  0  0  0  0
    3.1050   -0.2731    1.0000 C   0  0  0  0  0  0  0  0  0  0  0  0
    2.3700    1.0000    1.0000 N   0  0  0  0  0  0  0  0  0  0  0  0
    1.0000    1.0000    1.0000 C   0  0  0  0  0  0  0  0  0  0  0  0
    0.4000   -0.0392    1.0000 O   0  0  0  0  0  0  0  0  0  0  0  0
    0.2400    2.3164    1.0000 C   0  0  0  0  0  0  0  0  0  0  0  0
   -1.2356    2.0495    0.7512 C   0  0  0  0  0  0  0  0  0  0  0  0
   -1.5119    2.0850   -0.7433 C   0  0  0  0  0  0  0  0  0  0  0  0
   -2.7660    1.3233   -1.1326 C   0  0  0  0  0  0  0  0  0  0  0  0
   -3.0153    2.4200   -2.1517 C   0  0  0  0  0  0  0  0  0  0  0  0
   -2.2607    3.3173   -1.2049 C   0  0  0  0  0  0  0  0  0  0  0  0
   -2.0674    3.1154    1.4457 C   0  0  0  0  0  0  0  0  0  0  0  0
   -1.7910    3.0799    2.9399 C   0  0  0  0  0  0  0  0  0  0  0  0
    3.1050    2.2731    1.0000 C   0  0  0  0  0  0  0  0  0  0  0  0
    3.3583    2.7118    2.4331 C   0  0  0  0  0  0  0  0  0  0  0  0
    2.9684    2.0365    3.3452 O   0  0  0  0  0  0  0  0  0  0  0  0
    4.0318    3.8783    2.6834 N   0  0  0  0  0  0  0  0  0  0  0  0
    4.2768    4.3027    4.0693 C   0  0  0  0  0  0  0  0  0  0  0  0
    4.5094    4.7056    1.5661 C   0  0  0  0  0  0  0  0  0  0  0  0
  1  2  1  0
  2  3  2  0
  3  4  1  0
  4  5  2  0
  5  6  1  0
  6  7  2  0
  7  2  1  0
  5  8  1  0
  8  9  1  0
  9 10  1  0
 10 11  2  0
 10 12  1  0
 12 13  1  0
 13 14  1  0
 14 15  1  0
 15 16  1  0
 16 17  1  0
 17 14  1  0
 13 18  1  0
 18 19  1  0
  9 20  1  0
 20 21  1  0
 21 22  2  0
 21 23  1  0
 23 24  1  0
 23 25  1  0
M  END
$$$$
s_276530____14772634____14278174
     RDKit          3D

 23 25  0  0  0  0  0  0  0  0999 V2000
    2.8646    5.3410    2.1541 F   0  0  0  0  0  0  0  0  0  0  0  0
    2.7666    4.0386    2.4034 C   0  0  0  0  0  0  0  0  0  0  0  0
    1.9640    3.2374    1.5989 C   0  0  0  0  0  0  0  0  0  0  0  0
    1.8772    1.8772    1.8772 C   0  0  0  0  0  0  0  0  0  0  0  0
    2.5774    1.3148    2.9398 C   0  0  0  0  0  0  0  0  0  0  0  0
    3.3779    2.1266    3.7368 C   0  0  0  0  0  0  0  0  0  0  0  0
    3.4719    3.4889    3.4690 C   0  0  0  0  0  0  0  0  0  0  0  0
    1.0000    1.0000    1.0000 C   0  0  0  0  0  0  0  0  0  0  0  0
    1.8221    0.4590   -0.1588 C   0  0  0  0  0  0  0  0  0  0  0  0
    2.9342   -0.3308    0.3931 N   0  0  0  0  0  0  0  0  0  0  0  0
    3.4572   -1.4213   -0.3138 C   0  0  0  0  0  0  0  0  0  0  0  0
    4.3785   -2.0463    0.1866 O   0  0  0  0  0  0  0  0  0  0  0  0
    2.8867   -1.8129   -1.6689 C   0  0  0  0  0  0  0  0  0  0  0  0
    1.4629   -1.4594   -1.7802 N   0  0  0  0  0  0  0  0  0  0  0  0
    0.9323   -0.3769   -1.0665 C   0  0  0  0  0  0  0  0  0  0  0  0
   -0.2555   -0.1257   -1.1929 O   0  0  0  0  0  0  0  0  0  0  0  0
    3.0158   -3.3158   -1.8588 C   0  0  0  0  0  0  0  0  0  0  0  0
    2.2157   -4.0452   -0.7904 C   0  0  0  0  0  0  0  0  0  0  0  0
    2.5680   -5.5208   -0.6596 C   0  0  0  0  0  0  0  0  0  0  0  0
    1.7176   -6.4478   -1.5188 C   0  0  0  0  0  0  0  0  0  0  0  0
    1.4117   -5.9101   -2.9134 C   0  0  0  0  0  0  0  0  0  0  0  0
    2.5585   -5.1416   -3.5634 C   0  0  0  0  0  0  0  0  0  0  0  0
    2.5346   -3.6489   -3.2658 C   0  0  0  0  0  0  0  0  0  0  0  0
  1  2  1  0
  2  3  2  0
  3  4  1  0
  4  5  2  0
  5  6  1  0
  6  7  2  0
  7  2  1  0
  4  8  1  0
  8  9  1  0
  9 10  1  0
 10 11  1  0
 11 12  2  0
 11 13  1  0
 13 14  1  0
 14 15  1  0
 15  9  1  0
 15 16  2  0
 13 17  1  0
 17 18  1  0
 18 19  1  0
 19 20  1  0
 20 21  1  0
 21 22  1  0
 22 23  1  0
 23 17  1  0
M  END
$$$$
s_2708____6108022____14482960
     RDKit          3D

 24 25  0  0  0  0  0  0  0  0999 V2000
    0.9150    1.0000    3.2257 O   0  0  0  0  0  0  0  0  0  0  0  0
    0.3150    1.0000    2.1865 C   0  0  0  0  0  0  0  0  0  0  0  0
    1.0000    1.0000    1.0000 N   0  0  0  0  0  0  0  0  0  0  0  0
    2.4700    1.0000    1.0000 C   0  0  0  0  0  0  0  0  0  0  0  0
    2.9767   -0.2411    0.2835 C   0  0  0  0  0  0  0  0  0  0  0  0
    4.4967   -0.2411    0.2835 C   0  0  0  0  0  0  0  0  0  0  0  0
    5.0033   -1.4822   -0.4331 C   0  0  0  0  0  0  0  0  0  0  0  0
    5.2315   -1.4355   -1.8045 C   0  0  0  0  0  0  0  0  0  0  0  0
    5.6958   -2.5684   -2.4642 C   0  0  0  0  0  0  0  0  0  0  0  0
    5.9269   -3.7354   -1.7426 C   0  0  0  0  0  0  0  0  0  0  0  0
    6.3772   -4.8373   -2.3790 O   0  0  0  0  0  0  0  0  0  0  0  0
    5.7000   -3.7875   -0.3711 C   0  0  0  0  0  0  0  0  0  0  0  0
    5.2361   -2.6515    0.2836 C   0  0  0  0  0  0  0  0  0  0  0  0
    2.9767    2.2411    0.2835 C   0  0  0  0  0  0  0  0  0  0  0  0
    0.2650    1.0000   -0.2731 C   0  0  0  0  0  0  0  0  0  0  0  0
   -1.0550    1.0000    2.1865 N   0  0  0  0  0  0  0  0  0  0  0  0
   -1.7901    1.0000    3.4597 C   0  0  0  0  0  0  0  0  0  0  0  0
   -2.6556   -0.2488    3.5167 C   0  0  0  0  0  0  0  0  0  0  0  0
   -3.5194   -0.3061    4.7723 C   0  0  0  0  0  0  0  0  0  0  0  0
   -4.7128    0.6448    4.7234 C   0  0  0  0  0  0  0  0  0  0  0  0
   -4.4536    2.0273    5.3112 C   0  0  0  0  0  0  0  0  0  0  0  0
   -3.0900    2.6057    4.9509 C   0  0  0  0  0  0  0  0  0  0  0  0
   -2.6224    2.2711    3.5383 C   0  0  0  0  0  0  0  0  0  0  0  0
   -1.7450   -1.4664    3.5059 C   0  0  0  0  0  0  0  0  0  0  0  0
  1  2  2  0
  2  3  1  0
  3  4  1  0
  4  5  1  0
  5  6  1  0
  6  7  1  0
  7  8  2  0
  8  9  1  0
  9 10  2  0
 10 11  1  0
 10 12  1  0
 12 13  2  0
 13  7  1  0
  4 14  1  0
  3 15  1  0
  2 16  1  0
 16 17  1  0
 17 18  1  0
 18 19  1  0
 19 20  1  0
 20 21  1  0
 21 22  1  0
 22 23  1  0
 23 17  1  0
 18 24  1  0
M  END
$$$$
s_2708____6108022____9609408
     RDKit          3D

 23 24  0  0  0  0  0  0  0  0999 V2000
    5.7029    0.6966   -0.2982 Cl  0  0  0  0  0  0  0  0  0  0  0  0
    4.5058   -0.3309   -1.1228 C   0  0  0  0  0  0  0  0  0  0  0  0
    4.6983   -0.7361   -2.3873 N   0  0  0  0  0  0  0  0  0  0  0  0
    3.8045   -1.5108   -3.0206 C   0  0  0  0  0  0  0  0  0  0  0  0
    2.6399   -1.9218   -2.3810 C   0  0  0  0  0  0  0  0  0  0  0  0
    2.4177   -1.5148   -1.0697 C   0  0  0  0  0  0  0  0  0  0  0  0
    3.3584   -0.7119   -0.4332 C   0  0  0  0  0  0  0  0  0  0  0  0
    3.1050   -0.2731    1.0000 C   0  0  0  0  0  0  0  0  0  0  0  0
    2.3700    1.0000    1.0000 N   0  0  0  0  0  0  0  0  0  0  0  0
    1.0000    1.0000    1.0000 C   0  0  0  0  0  0  0  0  0  0  0  0
    0.4000   -0.0392    1.0000 O   0  0  0  0  0  0  0  0  0  0  0  0
    0.3150    2.1865    1.0000 N   0  0  0  0  0  0  0  0  0  0  0  0
   -1.1552    2.1865    1.0000 C   0  0  0  0  0  0  0  0  0  0  0  0
   -1.6373    2.9075   -0.2488 C   0  0  0  0  0  0  0  0  0  0  0  0
   -3.1566    3.0278   -0.3061 C   0  0  0  0  0  0  0  0  0  0  0  0
   -3.7109    4.0857    0.6448 C   0  0  0  0  0  0  0  0  0  0  0  0
   -4.0904    3.5674    2.0273 C   0  0  0  0  0  0  0  0  0  0  0  0
   -3.0966    2.5666    2.6057 C   0  0  0  0  0  0  0  0  0  0  0  0
   -1.6395    2.8679    2.2711 C   0  0  0  0  0  0  0  0  0  0  0  0
   -1.1727    2.1243   -1.4664 C   0  0  0  0  0  0  0  0  0  0  0  0
    3.1050    2.2731    1.0000 C   0  0  0  0  0  0  0  0  0  0  0  0
    3.3583    2.7118    2.4331 C   0  0  0  0  0  0  0  0  0  0  0  0
    4.0683    3.9416    2.4331 O   0  0  0  0  0  0  0  0  0  0  0  0
  1  2  1  0
  2  3  2  0
  3  4  1  0
  4  5  2  0
  5  6  1  0
  6  7  2  0
  7  2  1  0
  7  8  1  0
  8  9  1  0
  9 10  1  0
 10 11  2  0
 10 12  1  0
 12 13  1  0
 13 14  1  0
 14 15  1  0
 15 16  1  0
 16 17  1  0
 17 18  1  0
 18 19  1  0
 19 13  1  0
 14 20  1  0
  9 21  1  0
 21 22  1  0
 22 23  1  0
M  END
$$$$
s_2708____908366____9750454
     RDKit          3D

 22 23  0  0  0  0  0  0  0  0999 V2000
    2.9700    2.0392    1.0000 O   0  0  0  0  0  0  0  0  0  0  0  0
    2.3700    1.0000    1.0000 C   0  0  0  0  0  0  0  0  0  0  0  0
    1.0000    1.0000    1.0000 N   0  0  0  0  0  0  0  0  0  0  0  0
    0.2850    2.2384    1.0000 O   0  0  0  0  0  0  0  0  0  0  0  0
   -0.3482    2.4194   -0.2580 C   0  0  0  0  0  0  0  0  0  0  0  0
   -1.1084    3.7361   -0.2580 C   0  0  0  0  0  0  0  0  0  0  0  0
   -0.4755    4.9047   -0.6702 C   0  0  0  0  0  0  0  0  0  0  0  0
    0.8134    4.8873   -1.0726 O   0  0  0  0  0  0  0  0  0  0  0  0
    1.4432    6.0896   -1.4900 C   0  0  0  0  0  0  0  0  0  0  0  0
   -1.1710    6.1097   -0.6700 C   0  0  0  0  0  0  0  0  0  0  0  0
   -2.4997    6.1458   -0.2582 C   0  0  0  0  0  0  0  0  0  0  0  0
   -3.1324    4.9770    0.1532 C   0  0  0  0  0  0  0  0  0  0  0  0
   -2.4368    3.7723    0.1527 C   0  0  0  0  0  0  0  0  0  0  0  0
    3.0550   -0.1865    1.0000 N   0  0  0  0  0  0  0  0  0  0  0  0
    4.5248   -0.1865    1.0000 C   0  0  0  0  0  0  0  0  0  0  0  0
    5.0490   -0.8999   -0.2357 C   0  0  0  0  0  0  0  0  0  0  0  0
    6.5691   -0.9037   -0.2279 C   0  0  0  0  0  0  0  0  0  0  0  0
    7.0880   -1.5935    1.0233 C   0  0  0  0  0  0  0  0  0  0  0  0
    6.5634   -0.8795    2.2586 C   0  0  0  0  0  0  0  0  0  0  0  0
    5.0434   -0.8711    2.2543 C   0  0  0  0  0  0  0  0  0  0  0  0
    4.5325   -0.2070   -1.4862 C   0  0  0  0  0  0  0  0  0  0  0  0
    5.0600   -0.9249   -2.7177 C   0  0  0  0  0  0  0  0  0  0  0  0
  1  2  2  0
  2  3  1  0
  3  4  1  0
  4  5  1  0
  5  6  1  0
  6  7  2  0
  7  8  1  0
  8  9  1  0
  7 10  1  0
 10 11  2  0
 11 12  1  0
 12 13  2  0
 13  6  1  0
  2 14  1  0
 14 15  1  0
 15 16  1  0
 16 17  1  0
 17 18  1  0
 18 19  1  0
 19 20  1  0
 20 15  1  0
 16 21  1  0
 21 22  1  0
M  END
$$$$
s_22____8696600____5637262
     RDKit          3D

 25 26  0  0  0  0  0  0  0  0999 V2000
    4.6176    2.1698    2.4529 F   0  0  0  0  0  0  0  0  0  0  0  0
    3.9744    1.2128    3.1157 C   0  0  0  0  0  0  0  0  0  0  0  0
    2.6181    1.0098    2.8827 C   0  0  0  0  0  0  0  0  0  0  0  0
    1.9251    0.0147    3.5640 C   0  0  0  0  0  0  0  0  0  0  0  0
    2.6046   -0.7784    4.4837 C   0  0  0  0  0  0  0  0  0  0  0  0
    3.9606   -0.5709    4.7126 C   0  0  0  0  0  0  0  0  0  0  0  0
    4.6081   -1.3293    5.5916 F   0  0  0  0  0  0  0  0  0  0  0  0
    4.6576    0.4230    4.0343 C   0  0  0  0  0  0  0  0  0  0  0  0
    1.8776    1.8776    1.8776 C   0  0  0  0  0  0  0  0  0  0  0  0
    1.0385    2.8494    2.5935 N   0  0  0  0  0  0  0  0  0  0  0  0
    1.2401    4.1924    2.4132 C   0  0  0  0  0  0  0  0  0  0  0  0
    2.1015    4.5755    1.6708 O   0  0  0  0  0  0  0  0  0  0  0  0
    0.3725    5.1972    3.1535 C   0  0  0  0  0  0  0  0  0  0  0  0
    1.0000    1.0000    1.0000 C   0  0  0  0  0  0  0  0  0  0  0  0
    1.8776    0.1224    0.1224 C   0  0  0  0  0  0  0  0  0  0  0  0
    3.0596    0.3214    0.0662 O   0  0  0  0  0  0  0  0  0  0  0  0
    1.3060   -0.9195   -0.6213 N   0  0  0  0  0  0  0  0  0  0  0  0
    2.0424   -1.8311   -1.5006 C   0  0  0  0  0  0  0  0  0  0  0  0
    1.2999   -3.1320   -1.3082 C   0  0  0  0  0  0  0  0  0  0  0  0
    1.4393   -4.0417   -2.5179 C   0  0  0  0  0  0  0  0  0  0  0  0
    0.6755   -5.3326   -2.2718 C   0  0  0  0  0  0  0  0  0  0  0  0
    0.8737   -3.3442   -3.7443 C   0  0  0  0  0  0  0  0  0  0  0  0
    2.9082   -4.3580   -2.7474 C   0  0  0  0  0  0  0  0  0  0  0  0
   -0.1453   -2.7244   -1.1137 C   0  0  0  0  0  0  0  0  0  0  0  0
   -0.1156   -1.2805   -0.6374 C   0  0  0  0  0  0  0  0  0  0  0  0
  1  2  1  0
  2  3  2  0
  3  4  1  0
  4  5  2  0
  5  6  1  0
  6  7  1  0
  6  8  2  0
  8  2  1  0
  3  9  1  0
  9 10  1  0
 10 11  1  0
 11 12  2  0
 11 13  1  0
  9 14  1  0
 14 15  1  0
 15 16  2  0
 15 17  1  0
 17 18  1  0
 18 19  1  0
 19 20  1  0
 20 21  1  0
 20 22  1  0
 20 23  1  0
 19 24  1  0
 24 25  1  0
 25 17  1  0
M  END
$$$$
s_272104____9342666____11403110
     RDKit          3D

 28 30  0  0  0  0  0  0  0  0999 V2000
    7.3427    2.9752    3.0449 O   0  0  0  0  0  0  0  0  0  0  0  0
    6.6154    3.6739    3.7322 C   0  0  0  0  0  0  0  0  0  0  0  0
    5.2194    3.6554    3.6935 N   0  0  0  0  0  0  0  0  0  0  0  0
    4.7185    4.5775    4.6087 C   0  0  0  0  0  0  0  0  0  0  0  0
    3.5408    4.8043    4.8353 O   0  0  0  0  0  0  0  0  0  0  0  0
    5.8961    5.2402    5.2847 C   0  0  0  0  0  0  0  0  0  0  0  0
    7.0661    4.6103    4.6660 N   0  0  0  0  0  0  0  0  0  0  0  0
    5.8805    5.0068    6.7869 C   0  0  0  0  0  0  0  0  0  0  0  0
    7.1366    5.5999    7.4051 C   0  0  0  0  0  0  0  0  0  0  0  0
    7.1387    6.9200    7.8448 C   0  0  0  0  0  0  0  0  0  0  0  0
    6.0343    7.6884    7.7296 O   0  0  0  0  0  0  0  0  0  0  0  0
    8.2883    7.4629    8.4103 C   0  0  0  0  0  0  0  0  0  0  0  0
    9.4354    6.6854    8.5364 C   0  0  0  0  0  0  0  0  0  0  0  0
    9.4326    5.3652    8.0972 C   0  0  0  0  0  0  0  0  0  0  0  0
    8.2830    4.8226    7.5321 C   0  0  0  0  0  0  0  0  0  0  0  0
    4.4085    2.7942    2.8219 C   0  0  0  0  0  0  0  0  0  0  0  0
    3.5358    3.6413    1.9093 C   0  0  0  0  0  0  0  0  0  0  0  0
    2.6798    2.7438    1.0298 C   0  0  0  0  0  0  0  0  0  0  0  0
    1.8486    1.8486    1.8486 N   0  0  0  0  0  0  0  0  0  0  0  0
    2.6621    1.0285    2.7593 C   0  0  0  0  0  0  0  0  0  0  0  0
    3.5115    1.9037    3.6680 C   0  0  0  0  0  0  0  0  0  0  0  0
    1.0000    1.0000    1.0000 C   0  0  0  0  0  0  0  0  0  0  0  0
    1.8769    0.1561    0.0894 C   0  0  0  0  0  0  0  0  0  0  0  0
    0.9994   -0.7215   -0.7882 C   0  0  0  0  0  0  0  0  0  0  0  0
    1.8186   -1.5098   -1.6389 O   0  0  0  0  0  0  0  0  0  0  0  0
    0.9988   -2.3297   -2.4587 C   0  0  0  0  0  0  0  0  0  0  0  0
    0.7448   -3.6542   -1.7577 C   0  0  0  0  0  0  0  0  0  0  0  0
    4.4160    4.5461    1.0618 C   0  0  0  0  0  0  0  0  0  0  0  0
  1  2  2  0
  2  3  1  0
  3  4  1  0
  4  5  2  0
  4  6  1  0
  6  7  1  0
  7  2  1  0
  6  8  1  0
  8  9  1  0
  9 10  2  0
 10 11  1  0
 10 12  1  0
 12 13  2  0
 13 14  1  0
 14 15  2  0
 15  9  1  0
  3 16  1  0
 16 17  1  0
 17 18  1  0
 18 19  1  0
 19 20  1  0
 20 21  1  0
 21 16  1  0
 19 22  1  0
 22 23  1  0
 23 24  1  0
 24 25  1  0
 25 26  1  0
 26 27  1  0
 17 28  1  0
M  CHG  1  19   1
M  END
$$$$
s_2708____11973844____4509338
     RDKit          3D

 22 23  0  0  0  0  0  0  0  0999 V2000
    0.4000   -0.0392    1.0000 O   0  0  0  0  0  0  0  0  0  0  0  0
    1.0000    1.0000    1.0000 C   0  0  0  0  0  0  0  0  0  0  0  0
    2.3700    1.0000    1.0000 N   0  0  0  0  0  0  0  0  0  0  0  0
    3.1050   -0.2731    1.0000 C   0  0  0  0  0  0  0  0  0  0  0  0
    3.9785   -0.3535   -0.2406 C   0  0  0  0  0  0  0  0  0  0  0  0
    5.2577   -0.8892   -0.1315 C   0  0  0  0  0  0  0  0  0  0  0  0
    6.0552   -0.9628   -1.2681 C   0  0  0  0  0  0  0  0  0  0  0  0
    7.2998   -1.4779   -1.1845 O   0  0  0  0  0  0  0  0  0  0  0  0
    5.5818   -0.5076   -2.4945 C   0  0  0  0  0  0  0  0  0  0  0  0
    4.3008    0.0273   -2.5907 C   0  0  0  0  0  0  0  0  0  0  0  0
    3.4930    0.1053   -1.4610 C   0  0  0  0  0  0  0  0  0  0  0  0
    3.9789   -0.3536    2.2411 C   0  0  0  0  0  0  0  0  0  0  0  0
    3.1050    2.2731    1.0000 C   0  0  0  0  0  0  0  0  0  0  0  0
    0.3150    2.1865    1.0000 N   0  0  0  0  0  0  0  0  0  0  0  0
   -1.1545    2.1865    1.0000 C   0  0  0  0  0  0  0  0  0  0  0  0
   -1.6732    2.9009   -0.2374 C   0  0  0  0  0  0  0  0  0  0  0  0
   -3.1934    2.9070   -0.2395 C   0  0  0  0  0  0  0  0  0  0  0  0
   -3.7151    3.5912    1.0137 C   0  0  0  0  0  0  0  0  0  0  0  0
   -5.1347    3.5919    1.0116 O   0  0  0  0  0  0  0  0  0  0  0  0
   -3.1959    2.8767    2.2510 C   0  0  0  0  0  0  0  0  0  0  0  0
   -1.6757    2.8738    2.2515 C   0  0  0  0  0  0  0  0  0  0  0  0
   -3.7091    3.6234   -1.4768 C   0  0  0  0  0  0  0  0  0  0  0  0
  1  2  2  0
  2  3  1  0
  3  4  1  0
  4  5  1  0
  5  6  2  0
  6  7  1  0
  7  8  1  0
  7  9  2  0
  9 10  1  0
 10 11  2  0
 11  5  1  0
  4 12  1  0
  3 13  1  0
  2 14  1  0
 14 15  1  0
 15 16  1  0
 16 17  1  0
 17 18  1  0
 18 19  1  0
 18 20  1  0
 20 21  1  0
 21 15  1  0
 17 22  1  0
M  END
$$$$
s_275532____17541832____13658700
     RDKit          3D

 23 24  0  0  0  0  0  0  0  0999 V2000
    1.4118   -0.6300    5.1406 O   0  0  0  0  0  0  0  0  0  0  0  0
    0.6828   -0.2411    4.2566 C   0  0  0  0  0  0  0  0  0  0  0  0
   -0.3722   -0.8599    3.9988 O   0  0  0  0  0  0  0  0  0  0  0  0
    1.0500    1.0000    3.4595 C   0  0  0  0  0  0  0  0  0  0  0  0
    0.3150    1.0000    2.1865 N   0  0  0  0  0  0  0  0  0  0  0  0
    1.0000    1.0000    1.0000 C   0  0  0  0  0  0  0  0  0  0  0  0
    0.4000    1.0000   -0.0392 O   0  0  0  0  0  0  0  0  0  0  0  0
    2.5200    1.0000    1.0000 C   0  0  0  0  0  0  0  0  0  0  0  0
    3.0100    0.7593   -0.3649 N   0  0  0  0  0  0  0  0  0  0  0  0
    2.9464    2.0093   -1.1358 C   0  0  0  0  0  0  0  0  0  0  0  0
    3.2749    1.7236   -2.5921 C   0  0  0  0  0  0  0  0  0  0  0  0
    3.2423    2.9313   -3.4866 C   0  0  0  0  0  0  0  0  0  0  0  0
    2.0908    1.9679   -3.4801 C   0  0  0  0  0  0  0  0  0  0  0  0
    2.8976    4.2287   -2.7711 C   0  0  0  0  0  0  0  0  0  0  0  0
    4.4012    0.2877   -0.3100 C   0  0  0  0  0  0  0  0  0  0  0  0
    0.6828    2.2411    4.2566 C   0  0  0  0  0  0  0  0  0  0  0  0
    1.0500    3.4822    3.4595 C   0  0  0  0  0  0  0  0  0  0  0  0
    2.3152    4.0410    3.6073 C   0  0  0  0  0  0  0  0  0  0  0  0
    2.6559    5.1761    2.8795 C   0  0  0  0  0  0  0  0  0  0  0  0
    1.7255    5.7385    2.0113 C   0  0  0  0  0  0  0  0  0  0  0  0
    2.0518    6.8404    1.3033 O   0  0  0  0  0  0  0  0  0  0  0  0
    0.4587    5.1838    1.8600 C   0  0  0  0  0  0  0  0  0  0  0  0
    0.1235    4.0485    2.5900 C   0  0  0  0  0  0  0  0  0  0  0  0
  1  2  1  0
  2  3  2  0
  2  4  1  0
  4  5  1  0
  5  6  1  0
  6  7  2  0
  6  8  1  0
  8  9  1  0
  9 10  1  0
 10 11  1  0
 11 12  1  0
 12 13  1  0
 13 11  1  0
 12 14  1  0
  9 15  1  0
  4 16  1  0
 16 17  1  0
 17 18  2  0
 18 19  1  0
 19 20  2  0
 20 21  1  0
 20 22  1  0
 22 23  2  0
 23 17  1  0
M  CHG  2   1  -1   9   1
M  END
$$$$
s_22____10813308____17513450
     RDKit          3D

 29 31  0  0  0  0  0  0  0  0999 V2000
    0.4000    2.0316    0.8739 O   0  0  0  0  0  0  0  0  0  0  0  0
    1.0000    1.0000    1.0000 C   0  0  0  0  0  0  0  0  0  0  0  0
    2.3974    1.0000    1.0000 N   0  0  0  0  0  0  0  0  0  0  0  0
    3.0942    2.2871    0.8427 C   0  0  0  0  0  0  0  0  0  0  0  0
    4.4162    2.1328    0.1035 C   0  0  0  0  0  0  0  0  0  0  0  0
    5.2334    0.9581    0.6227 C   0  0  0  0  0  0  0  0  0  0  0  0
    6.4829    0.8475   -0.2357 C   0  0  0  0  0  0  0  0  0  0  0  0
    7.3301   -0.3171    0.2505 C   0  0  0  0  0  0  0  0  0  0  0  0
    8.5407   -0.4243   -0.5812 N   0  0  0  0  0  0  0  0  0  0  0  0
    9.3538    0.7993   -0.5160 C   0  0  0  0  0  0  0  0  0  0  0  0
   10.5911    0.6556   -1.3877 C   0  0  0  0  0  0  0  0  0  0  0  0
   11.3449   -0.4831   -0.9961 O   0  0  0  0  0  0  0  0  0  0  0  0
   10.5809   -1.6795   -1.0641 C   0  0  0  0  0  0  0  0  0  0  0  0
    9.3465   -1.5881   -0.1804 C   0  0  0  0  0  0  0  0  0  0  0  0
    4.4202   -0.3093    0.4004 C   0  0  0  0  0  0  0  0  0  0  0  0
    3.0969   -0.2865    1.1527 C   0  0  0  0  0  0  0  0  0  0  0  0
    0.2400   -0.3066    1.1597 C   0  0  0  0  0  0  0  0  0  0  0  0
   -1.0444   -0.2162    0.4505 N   0  0  0  0  0  0  0  0  0  0  0  0
   -1.1292   -0.5931   -0.8639 C   0  0  0  0  0  0  0  0  0  0  0  0
   -0.1550   -0.9971   -1.4363 O   0  0  0  0  0  0  0  0  0  0  0  0
   -2.4574   -0.4997   -1.5972 C   0  0  0  0  0  0  0  0  0  0  0  0
   -0.0133   -0.5684    2.6354 C   0  0  0  0  0  0  0  0  0  0  0  0
   -0.7734   -1.8750    2.7951 C   0  0  0  0  0  0  0  0  0  0  0  0
   -0.0668   -3.0644    2.9404 C   0  0  0  0  0  0  0  0  0  0  0  0
   -0.7580   -4.2623    3.0876 C   0  0  0  0  0  0  0  0  0  0  0  0
   -2.1493   -4.2553    3.0880 C   0  0  0  0  0  0  0  0  0  0  0  0
   -2.8591   -5.4760    3.2376 O   0  0  0  0  0  0  0  0  0  0  0  0
   -2.8607   -3.0687    2.9426 C   0  0  0  0  0  0  0  0  0  0  0  0
   -2.1644   -1.8737    2.7963 C   0  0  0  0  0  0  0  0  0  0  0  0
  1  2  2  0
  2  3  1  0
  3  4  1  0
  4  5  1  0
  5  6  1  0
  6  7  1  0
  7  8  1  0
  8  9  1  0
  9 10  1  0
 10 11  1  0
 11 12  1  0
 12 13  1  0
 13 14  1  0
 14  9  1  0
  6 15  1  0
 15 16  1  0
 16  3  1  0
  2 17  1  0
 17 18  1  0
 18 19  1  0
 19 20  2  0
 19 21  1  0
 17 22  1  0
 22 23  1  0
 23 24  2  0
 24 25  1  0
 25 26  2  0
 26 27  1  0
 26 28  1  0
 28 29  2  0
 29 23  1  0
M  CHG  1   9   1
M  END
$$$$
s_512____784460____13913670
     RDKit          3D

 22 24  0  0  0  0  0  0  0  0999 V2000
    0.1081    3.0659    2.5193 O   0  0  0  0  0  0  0  0  0  0  0  0
    1.2902    2.8669    2.5755 C   0  0  0  0  0  0  0  0  0  0  0  0
    2.0811    3.6579    3.3665 N   0  0  0  0  0  0  0  0  0  0  0  0
    1.4823    4.7496    4.1458 C   0  0  0  0  0  0  0  0  0  0  0  0
    1.7049    4.5896    5.6384 C   0  0  0  0  0  0  0  0  0  0  0  0
    0.7860    3.5264    6.2193 C   0  0  0  0  0  0  0  0  0  0  0  0
    1.0092    3.3713    7.6953 C   0  0  0  0  0  0  0  0  0  0  0  0
    1.5416    2.3392    6.7431 C   0  0  0  0  0  0  0  0  0  0  0  0
    1.3679    5.9691    6.1806 C   0  0  0  0  0  0  0  0  0  0  0  0
    1.6439    6.9293    5.0385 C   0  0  0  0  0  0  0  0  0  0  0  0
    2.1852    6.0712    3.9088 C   0  0  0  0  0  0  0  0  0  0  0  0
    1.8487    1.8487    1.8487 N   0  0  0  0  0  0  0  0  0  0  0  0
    1.0000    1.0000    1.0000 C   0  0  0  0  0  0  0  0  0  0  0  0
    0.7075    1.7208   -0.3059 C   0  0  0  0  0  0  0  0  0  0  0  0
   -0.1698    0.8436   -1.1831 C   0  0  0  0  0  0  0  0  0  0  0  0
   -1.5525    0.9507   -1.0760 C   0  0  0  0  0  0  0  0  0  0  0  0
   -2.3536    0.1476   -1.8803 C   0  0  0  0  0  0  0  0  0  0  0  0
   -3.6975    0.2346   -1.7917 O   0  0  0  0  0  0  0  0  0  0  0  0
   -4.2913    1.1452   -0.8782 C   0  0  0  0  0  0  0  0  0  0  0  0
   -1.7814   -0.7488   -2.7771 C   0  0  0  0  0  0  0  0  0  0  0  0
   -0.3969   -0.8476   -2.8743 C   0  0  0  0  0  0  0  0  0  0  0  0
    0.4152   -0.0489   -2.0759 C   0  0  0  0  0  0  0  0  0  0  0  0
  1  2  2  0
  2  3  1  0
  3  4  1  0
  4  5  1  0
  5  6  1  0
  6  7  1  0
  7  8  1  0
  8  6  1  0
  5  9  1  0
  9 10  1  0
 10 11  1  0
 11  4  1  0
  2 12  1  0
 12 13  1  0
 13 14  1  0
 14 15  1  0
 15 16  2  0
 16 17  1  0
 17 18  1  0
 18 19  1  0
 17 20  2  0
 20 21  1  0
 21 22  2  0
 22 15  1  0
M  END
$$$$
s_8____14591234____83777
     RDKit          3D

 24 25  0  0  0  0  0  0  0  0999 V2000
    3.8538    0.3215    1.1365 S   0  0  0  0  0  0  0  0  0  0  0  0
    3.1982    1.6215    1.9129 C   0  0  0  0  0  0  0  0  0  0  0  0
    1.8487    1.8487    1.8487 N   0  0  0  0  0  0  0  0  0  0  0  0
    1.2494    2.9412    2.6286 C   0  0  0  0  0  0  0  0  0  0  0  0
    1.0673    2.4943    4.0693 C   0  0  0  0  0  0  0  0  0  0  0  0
   -0.1242    1.8791    4.4394 C   0  0  0  0  0  0  0  0  0  0  0  0
   -0.2885    1.4701    5.7582 C   0  0  0  0  0  0  0  0  0  0  0  0
   -1.4370    0.8723    6.1389 O   0  0  0  0  0  0  0  0  0  0  0  0
    0.7219    1.6733    6.6925 C   0  0  0  0  0  0  0  0  0  0  0  0
    1.9089    2.2909    6.3104 C   0  0  0  0  0  0  0  0  0  0  0  0
    2.0857    2.7036    4.9938 C   0  0  0  0  0  0  0  0  0  0  0  0
    1.0000    1.0000    1.0000 C   0  0  0  0  0  0  0  0  0  0  0  0
    0.7075    1.7208   -0.3059 C   0  0  0  0  0  0  0  0  0  0  0  0
   -0.1124    0.9010   -1.1257 O   0  0  0  0  0  0  0  0  0  0  0  0
   -0.3856    1.5744   -2.3456 C   0  0  0  0  0  0  0  0  0  0  0  0
   -1.6532    2.3997   -2.1959 C   0  0  0  0  0  0  0  0  0  0  0  0
    4.0034    2.4737    2.6216 N   0  0  0  0  0  0  0  0  0  0  0  0
    5.4577    2.2615    2.6452 C   0  0  0  0  0  0  0  0  0  0  0  0
    6.1759    3.6009    2.6168 C   0  0  0  0  0  0  0  0  0  0  0  0
    7.6806    3.3854    2.6402 C   0  0  0  0  0  0  0  0  0  0  0  0
    8.0778    2.6065    3.8838 C   0  0  0  0  0  0  0  0  0  0  0  0
    7.3599    1.2669    3.9122 C   0  0  0  0  0  0  0  0  0  0  0  0
    5.8551    1.4812    3.8878 C   0  0  0  0  0  0  0  0  0  0  0  0
    5.7853    4.3769    1.3697 C   0  0  0  0  0  0  0  0  0  0  0  0
  1  2  2  0
  2  3  1  0
  3  4  1  0
  4  5  1  0
  5  6  2  0
  6  7  1  0
  7  8  1  0
  7  9  2  0
  9 10  1  0
 10 11  2  0
 11  5  1  0
  3 12  1  0
 12 13  1  0
 13 14  1  0
 14 15  1  0
 15 16  1  0
  2 17  1  0
 17 18  1  0
 18 19  1  0
 19 20  1  0
 20 21  1  0
 21 22  1  0
 22 23  1  0
 23 18  1  0
 19 24  1  0
M  END
$$$$
s_22____13611716____17513450
     RDKit          3D

 22 22  0  0  0  0  0  0  0  0999 V2000
    0.4000    1.0000   -0.0392 O   0  0  0  0  0  0  0  0  0  0  0  0
    1.0000    1.0000    1.0000 C   0  0  0  0  0  0  0  0  0  0  0  0
    0.3150    1.0000    2.1865 N   0  0  0  0  0  0  0  0  0  0  0  0
   -1.1550    1.0000    2.1865 C   0  0  0  0  0  0  0  0  0  0  0  0
   -1.6617   -0.4331    2.1865 C   0  0  0  0  0  0  0  0  0  0  0  0
   -1.8783   -1.0459    3.3123 C   0  0  0  0  0  0  0  0  0  0  0  0
    1.0500    1.0000    3.4595 C   0  0  0  0  0  0  0  0  0  0  0  0
    1.3033    2.4331    3.8983 C   0  0  0  0  0  0  0  0  0  0  0  0
    2.0633    2.4331    5.2147 C   0  0  0  0  0  0  0  0  0  0  0  0
    2.5200    1.0000    1.0000 C   0  0  0  0  0  0  0  0  0  0  0  0
    3.0100    1.6930   -0.2002 N   0  0  0  0  0  0  0  0  0  0  0  0
    3.2383    3.0434   -0.1663 C   0  0  0  0  0  0  0  0  0  0  0  0
    3.0383    3.6605    0.8432 O   0  0  0  0  0  0  0  0  0  0  0  0
    3.7450    3.7599   -1.4074 C   0  0  0  0  0  0  0  0  0  0  0  0
    3.0267   -0.4331    1.0000 C   0  0  0  0  0  0  0  0  0  0  0  0
    4.5467   -0.4331    1.0000 C   0  0  0  0  0  0  0  0  0  0  0  0
    5.2311   -0.4331    2.2110 C   0  0  0  0  0  0  0  0  0  0  0  0
    6.6219   -0.4338    2.2159 C   0  0  0  0  0  0  0  0  0  0  0  0
    7.3116   -0.4351    1.0075 C   0  0  0  0  0  0  0  0  0  0  0  0
    8.7316   -0.4355    1.0077 O   0  0  0  0  0  0  0  0  0  0  0  0
    6.6320   -0.4347   -0.2063 C   0  0  0  0  0  0  0  0  0  0  0  0
    5.2412   -0.4344   -0.2053 C   0  0  0  0  0  0  0  0  0  0  0  0
  1  2  2  0
  2  3  1  0
  3  4  1  0
  4  5  1  0
  5  6  2  0
  3  7  1  0
  7  8  1  0
  8  9  1  0
  2 10  1  0
 10 11  1  0
 11 12  1  0
 12 13  2  0
 12 14  1  0
 10 15  1  0
 15 16  1  0
 16 17  2  0
 17 18  1  0
 18 19  2  0
 19 20  1  0
 19 21  1  0
 21 22  2  0
 22 16  1  0
M  END
$$$$
s_22____13465914____17513450
     RDKit          3D

 21 22  0  0  0  0  0  0  0  0999 V2000
   -4.0939    0.9843    1.1316 S   0  0  0  0  0  0  0  0  0  0  0  0
   -2.5220    0.0909    1.0662 C   0  0  0  0  0  0  0  0  0  0  0  0
   -1.8130    1.3429    1.5462 C   0  0  0  0  0  0  0  0  0  0  0  0
   -1.1681    2.1466    0.4955 N   0  0  0  0  0  0  0  0  0  0  0  0
    0.1224    1.8776    0.1224 C   0  0  0  0  0  0  0  0  0  0  0  0
    0.5600    2.3347   -0.8972 O   0  0  0  0  0  0  0  0  0  0  0  0
    1.0000    1.0000    1.0000 C   0  0  0  0  0  0  0  0  0  0  0  0
    1.8487    0.1513    0.1513 N   0  0  0  0  0  0  0  0  0  0  0  0
    1.7598   -1.2129    0.2402 C   0  0  0  0  0  0  0  0  0  0  0  0
    0.9891   -1.7150    1.0109 O   0  0  0  0  0  0  0  0  0  0  0  0
    2.6374   -2.0905   -0.6374 C   0  0  0  0  0  0  0  0  0  0  0  0
    1.8776    1.8776    1.8776 C   0  0  0  0  0  0  0  0  0  0  0  0
    2.3228    1.0890    3.0984 C   0  0  0  0  0  0  0  0  0  0  0  0
    1.5430    1.1124    4.2500 C   0  0  0  0  0  0  0  0  0  0  0  0
    1.9461    0.3918    5.3693 C   0  0  0  0  0  0  0  0  0  0  0  0
    3.1256   -0.3445    5.3222 C   0  0  0  0  0  0  0  0  0  0  0  0
    3.5207   -1.0450    6.4063 O   0  0  0  0  0  0  0  0  0  0  0  0
    3.9094   -0.3710    4.1731 C   0  0  0  0  0  0  0  0  0  0  0  0
    3.5013    0.3511    3.0567 C   0  0  0  0  0  0  0  0  0  0  0  0
   -1.9085    3.2380   -0.1537 C   0  0  0  0  0  0  0  0  0  0  0  0
   -3.0246    1.9696    2.2008 C   0  0  0  0  0  0  0  0  0  0  0  0
  1  2  1  0
  2  3  1  0
  3  4  1  0
  4  5  1  0
  5  6  2  0
  5  7  1  0
  7  8  1  0
  8  9  1  0
  9 10  2  0
  9 11  1  0
  7 12  1  0
 12 13  1  0
 13 14  2  0
 14 15  1  0
 15 16  2  0
 16 17  1  0
 16 18  1  0
 18 19  2  0
 19 13  1  0
  4 20  1  0
  3 21  1  0
 21  1  1  0
M  END
$$$$
s_22____5360682____17513450
     RDKit          3D

 23 23  0  0  0  0  0  0  0  0999 V2000
    5.1000    1.0000   -2.1396 S   0  0  0  0  0  0  0  0  0  0  0  0
    4.4967    1.0000   -0.4331 C   0  0  0  0  0  0  0  0  0  0  0  0
    2.9767    1.0000   -0.4331 C   0  0  0  0  0  0  0  0  0  0  0  0
    2.5033    2.1594   -1.1025 O   0  0  0  0  0  0  0  0  0  0  0  0
    2.4700    1.0000    1.0000 C   0  0  0  0  0  0  0  0  0  0  0  0
    1.0000    1.0000    1.0000 N   0  0  0  0  0  0  0  0  0  0  0  0
    0.3150    1.0000    2.1865 C   0  0  0  0  0  0  0  0  0  0  0  0
    0.9150    1.0000    3.2257 O   0  0  0  0  0  0  0  0  0  0  0  0
   -1.2050    1.0000    2.1865 C   0  0  0  0  0  0  0  0  0  0  0  0
   -1.6950    1.0000    3.5724 N   0  0  0  0  0  0  0  0  0  0  0  0
   -2.4826    2.0275    4.0205 C   0  0  0  0  0  0  0  0  0  0  0  0
   -2.7725    2.9275    3.2816 O   0  0  0  0  0  0  0  0  0  0  0  0
   -2.9893    2.0275    5.4535 C   0  0  0  0  0  0  0  0  0  0  0  0
   -1.7117   -0.2411    1.4699 C   0  0  0  0  0  0  0  0  0  0  0  0
   -3.2317   -0.2411    1.4699 C   0  0  0  0  0  0  0  0  0  0  0  0
   -3.9161    0.3644    0.4212 C   0  0  0  0  0  0  0  0  0  0  0  0
   -5.3069    0.3662    0.4166 C   0  0  0  0  0  0  0  0  0  0  0  0
   -5.9966   -0.2391    1.4624 C   0  0  0  0  0  0  0  0  0  0  0  0
   -7.3464   -0.2393    1.4621 O   0  0  0  0  0  0  0  0  0  0  0  0
   -5.3170   -0.8457    2.5138 C   0  0  0  0  0  0  0  0  0  0  0  0
   -3.9262   -0.8449    2.5131 C   0  0  0  0  0  0  0  0  0  0  0  0
    2.4700   -0.2411   -1.1496 C   0  0  0  0  0  0  0  0  0  0  0  0
    6.8799    1.0000   -1.8106 C   0  0  0  0  0  0  0  0  0  0  0  0
  1  2  1  0
  2  3  1  0
  3  4  1  0
  3  5  1  0
  5  6  1  0
  6  7  1  0
  7  8  2  0
  7  9  1  0
  9 10  1  0
 10 11  1  0
 11 12  2  0
 11 13  1  0
  9 14  1  0
 14 15  1  0
 15 16  2  0
 16 17  1  0
 17 18  2  0
 18 19  1  0
 18 20  1  0
 20 21  2  0
 21 15  1  0
  3 22  1  0
  1 23  1  0
M  END
$$$$
s_22____7966704____7841202
     RDKit          3D

 19 19  0  0  0  0  0  0  0  0999 V2000
   -1.2287    1.5747    3.1711 S   0  0  0  0  0  0  0  0  0  0  0  0
   -1.1970    2.0718    1.4309 C   0  0  0  0  0  0  0  0  0  0  0  0
    0.2400    2.3164    1.0000 C   0  0  0  0  0  0  0  0  0  0  0  0
    1.0000    1.0000    1.0000 C   0  0  0  0  0  0  0  0  0  0  0  0
    0.4000   -0.0392    1.0000 O   0  0  0  0  0  0  0  0  0  0  0  0
    2.3700    1.0000    1.0000 N   0  0  0  0  0  0  0  0  0  0  0  0
    3.1050   -0.2731    1.0000 C   0  0  0  0  0  0  0  0  0  0  0  0
    3.9789   -0.3536    2.2411 C   0  0  0  0  0  0  0  0  0  0  0  0
    4.9016    0.7257    2.2411 O   0  0  0  0  0  0  0  0  0  0  0  0
    3.9789   -0.3536   -0.2411 C   0  0  0  0  0  0  0  0  0  0  0  0
    3.1050   -0.2731   -1.4822 C   0  0  0  0  0  0  0  0  0  0  0  0
    2.8226    0.9691   -2.0410 C   0  0  0  0  0  0  0  0  0  0  0  0
    2.0241    1.0476   -3.1770 C   0  0  0  0  0  0  0  0  0  0  0  0
    1.5177   -0.1192   -3.7409 C   0  0  0  0  0  0  0  0  0  0  0  0
    0.7420   -0.0476   -4.8432 O   0  0  0  0  0  0  0  0  0  0  0  0
    1.7968   -1.3640   -3.1858 C   0  0  0  0  0  0  0  0  0  0  0  0
    2.5962   -1.4366   -2.0500 C   0  0  0  0  0  0  0  0  0  0  0  0
   -2.0033    3.3480    1.2538 C   0  0  0  0  0  0  0  0  0  0  0  0
   -2.9628    1.0698    3.2897 C   0  0  0  0  0  0  0  0  0  0  0  0
  1  2  1  0
  2  3  1  0
  3  4  1  0
  4  5  2  0
  4  6  1  0
  6  7  1  0
  7  8  1  0
  8  9  1  0
  7 10  1  0
 10 11  1  0
 11 12  2  0
 12 13  1  0
 13 14  2  0
 14 15  1  0
 14 16  1  0
 16 17  2  0
 17 11  1  0
  2 18  1  0
  1 19  1  0
M  END
$$$$
s_22____14174274____7692614
     RDKit          3D

 23 23  0  0  0  0  0  0  0  0999 V2000
   -2.1643    1.5030    0.0107 S   0  0  0  0  0  0  0  0  0  0  0  0
   -1.1970    2.0718    1.4309 C   0  0  0  0  0  0  0  0  0  0  0  0
    0.2400    2.3164    1.0000 C   0  0  0  0  0  0  0  0  0  0  0  0
    1.0000    1.0000    1.0000 C   0  0  0  0  0  0  0  0  0  0  0  0
    0.4000   -0.0392    1.0000 O   0  0  0  0  0  0  0  0  0  0  0  0
    2.3700    1.0000    1.0000 N   0  0  0  0  0  0  0  0  0  0  0  0
    3.1050   -0.2731    1.0000 C   0  0  0  0  0  0  0  0  0  0  0  0
    3.9789   -0.3536    2.2411 C   0  0  0  0  0  0  0  0  0  0  0  0
    5.0852   -0.8125    2.1672 O   0  0  0  0  0  0  0  0  0  0  0  0
    3.5243    0.0780    3.3914 O   0  0  0  0  0  0  0  0  0  0  0  0
    4.3406    0.0028    4.5508 C   0  0  0  0  0  0  0  0  0  0  0  0
    3.9789   -0.3536   -0.2411 C   0  0  0  0  0  0  0  0  0  0  0  0
    3.1052   -0.2731   -1.4818 C   0  0  0  0  0  0  0  0  0  0  0  0
    2.8303    0.9745   -2.0309 C   0  0  0  0  0  0  0  0  0  0  0  0
    2.0310    1.0430   -3.1668 C   0  0  0  0  0  0  0  0  0  0  0  0
    1.7523    2.2226   -3.7135 F   0  0  0  0  0  0  0  0  0  0  0  0
    1.5184   -0.1168   -3.7402 C   0  0  0  0  0  0  0  0  0  0  0  0
    0.7432   -0.0394   -4.8434 O   0  0  0  0  0  0  0  0  0  0  0  0
    1.7970   -1.3622   -3.1868 C   0  0  0  0  0  0  0  0  0  0  0  0
    2.5959   -1.4360   -2.0505 C   0  0  0  0  0  0  0  0  0  0  0  0
   -1.7928    3.3642    1.9649 C   0  0  0  0  0  0  0  0  0  0  0  0
   -0.9804    3.8418    3.1576 C   0  0  0  0  0  0  0  0  0  0  0  0
   -3.8192    1.6033    0.7369 C   0  0  0  0  0  0  0  0  0  0  0  0
  1  2  1  0
  2  3  1  0
  3  4  1  0
  4  5  2  0
  4  6  1  0
  6  7  1  0
  7  8  1  0
  8  9  2  0
  8 10  1  0
 10 11  1  0
  7 12  1  0
 12 13  1  0
 13 14  2  0
 14 15  1  0
 15 16  1  0
 15 17  2  0
 17 18  1  0
 17 19  1  0
 19 20  2  0
 20 13  1  0
  2 21  1  0
 21 22  1  0
  1 23  1  0
M  END
$$$$
s_11a____14594094____7692612
     RDKit          3D

 22 22  0  0  0  0  0  0  0  0999 V2000
   -2.2117    1.7181   -0.0255 S   0  0  0  0  0  0  0  0  0  0  0  0
   -1.1970    2.0718    1.4309 C   0  0  0  0  0  0  0  0  0  0  0  0
    0.2400    2.3164    1.0000 C   0  0  0  0  0  0  0  0  0  0  0  0
    1.0000    1.0000    1.0000 C   0  0  0  0  0  0  0  0  0  0  0  0
    0.4000   -0.0392    1.0000 O   0  0  0  0  0  0  0  0  0  0  0  0
    2.3700    1.0000    1.0000 N   0  0  0  0  0  0  0  0  0  0  0  0
    3.1050    2.2731    1.0000 C   0  0  0  0  0  0  0  0  0  0  0  0
    4.2359    2.2052    2.0133 C   0  0  0  0  0  0  0  0  0  0  0  0
    4.9913    1.2728    2.0079 O   0  0  0  0  0  0  0  0  0  0  0  0
    4.3928    3.2085    2.9329 N   0  0  0  0  0  0  0  0  0  0  0  0
    3.3505    4.2335    3.0874 C   0  0  0  0  0  0  0  0  0  0  0  0
    5.6035    3.2600    3.7651 C   0  0  0  0  0  0  0  0  0  0  0  0
    3.6795    2.5264   -0.3842 C   0  0  0  0  0  0  0  0  0  0  0  0
    2.6721    3.3031   -1.2167 C   0  0  0  0  0  0  0  0  0  0  0  0
    1.7361    2.6164   -1.9831 C   0  0  0  0  0  0  0  0  0  0  0  0
    0.8166    3.3310   -2.7440 C   0  0  0  0  0  0  0  0  0  0  0  0
    0.8367    4.7217   -2.7338 C   0  0  0  0  0  0  0  0  0  0  0  0
    1.7758    5.3970   -1.9641 C   0  0  0  0  0  0  0  0  0  0  0  0
    2.7010    4.6940   -1.1994 C   0  0  0  0  0  0  0  0  0  0  0  0
   -1.7327    3.3086    2.1335 C   0  0  0  0  0  0  0  0  0  0  0  0
   -0.8805    3.6056    3.3566 C   0  0  0  0  0  0  0  0  0  0  0  0
   -3.8477    1.7867    0.7458 C   0  0  0  0  0  0  0  0  0  0  0  0
  1  2  1  0
  2  3  1  0
  3  4  1  0
  4  5  2  0
  4  6  1  0
  6  7  1  0
  7  8  1  0
  8  9  2  0
  8 10  1  0
 10 11  1  0
 10 12  1  0
  7 13  1  0
 13 14  1  0
 14 15  2  0
 15 16  1  0
 16 17  2  0
 17 18  1  0
 18 19  2  0
 19 14  1  0
  2 20  1  0
 20 21  1  0
  1 22  1  0
M  END
$$$$
s_22____564348____17513450
     RDKit          3D

 22 22  0  0  0  0  0  0  0  0999 V2000
    0.4000    1.0000   -0.0392 O   0  0  0  0  0  0  0  0  0  0  0  0
    1.0000    1.0000    1.0000 C   0  0  0  0  0  0  0  0  0  0  0  0
    0.3150    1.0000    2.1865 N   0  0  0  0  0  0  0  0  0  0  0  0
   -1.1550    1.0000    2.1865 C   0  0  0  0  0  0  0  0  0  0  0  0
   -1.6617   -0.4331    2.1865 C   0  0  0  0  0  0  0  0  0  0  0  0
   -3.0817   -0.4331    2.1865 O   0  0  0  0  0  0  0  0  0  0  0  0
    1.0500    1.0000    3.4595 C   0  0  0  0  0  0  0  0  0  0  0  0
    1.3033    2.4331    3.8983 C   0  0  0  0  0  0  0  0  0  0  0  0
    2.0633    2.4331    5.2147 C   0  0  0  0  0  0  0  0  0  0  0  0
    2.5200    1.0000    1.0000 C   0  0  0  0  0  0  0  0  0  0  0  0
    3.0100    1.6930   -0.2002 N   0  0  0  0  0  0  0  0  0  0  0  0
    3.2383    3.0434   -0.1663 C   0  0  0  0  0  0  0  0  0  0  0  0
    3.0383    3.6605    0.8432 O   0  0  0  0  0  0  0  0  0  0  0  0
    3.7450    3.7599   -1.4074 C   0  0  0  0  0  0  0  0  0  0  0  0
    3.0267   -0.4331    1.0000 C   0  0  0  0  0  0  0  0  0  0  0  0
    4.5467   -0.4331    1.0000 C   0  0  0  0  0  0  0  0  0  0  0  0
    5.2311   -0.4331    2.2110 C   0  0  0  0  0  0  0  0  0  0  0  0
    6.6219   -0.4338    2.2159 C   0  0  0  0  0  0  0  0  0  0  0  0
    7.3116   -0.4351    1.0075 C   0  0  0  0  0  0  0  0  0  0  0  0
    8.7316   -0.4355    1.0077 O   0  0  0  0  0  0  0  0  0  0  0  0
    6.6320   -0.4347   -0.2063 C   0  0  0  0  0  0  0  0  0  0  0  0
    5.2412   -0.4344   -0.2053 C   0  0  0  0  0  0  0  0  0  0  0  0
  1  2  2  0
  2  3  1  0
  3  4  1  0
  4  5  1  0
  5  6  1  0
  3  7  1  0
  7  8  1  0
  8  9  1  0
  2 10  1  0
 10 11  1  0
 11 12  1  0
 12 13  2  0
 12 14  1  0
 10 15  1  0
 15 16  1  0
 16 17  2  0
 17 18  1  0
 18 19  2  0
 19 20  1  0
 19 21  1  0
 21 22  2  0
 22 16  1  0
M  END
$$$$
s_276436a____14085696____14098040
     RDKit          3D

 20 20  0  0  0  0  0  0  0  0999 V2000
   -3.4011    1.7876    3.4566 S   0  0  0  0  0  0  0  0  0  0  0  0
   -1.6902    1.2028    3.5409 C   0  0  0  0  0  0  0  0  0  0  0  0
   -1.1739    0.9426    2.1351 C   0  0  0  0  0  0  0  0  0  0  0  0
    0.3450    1.0000    2.1345 C   0  0  0  0  0  0  0  0  0  0  0  0
    0.9441    1.0453    3.1732 O   0  0  0  0  0  0  0  0  0  0  0  0
    1.0000    1.0000    1.0000 O   0  0  0  0  0  0  0  0  0  0  0  0
    2.4200    1.0000    1.0000 C   0  0  0  0  0  0  0  0  0  0  0  0
    2.9267   -0.4331    1.0000 C   0  0  0  0  0  0  0  0  0  0  0  0
    2.4367   -1.1260   -0.2002 N   0  0  0  0  0  0  0  0  0  0  0  0
    1.6490   -2.2399   -0.0746 C   0  0  0  0  0  0  0  0  0  0  0  0
    1.3591   -2.6499    1.0153 O   0  0  0  0  0  0  0  0  0  0  0  0
    1.1424   -2.9565   -1.3156 C   0  0  0  0  0  0  0  0  0  0  0  0
    4.4470   -0.4331    1.0000 C   0  0  0  0  0  0  0  0  0  0  0  0
    5.1360   -0.6429    2.1900 C   0  0  0  0  0  0  0  0  0  0  0  0
    6.5271   -0.6413    2.1857 C   0  0  0  0  0  0  0  0  0  0  0  0
    7.2187   -0.4322    0.9972 C   0  0  0  0  0  0  0  0  0  0  0  0
    6.5199   -0.2242   -0.1856 C   0  0  0  0  0  0  0  0  0  0  0  0
    5.1289   -0.2228   -0.1944 C   0  0  0  0  0  0  0  0  0  0  0  0
   -1.6337   -0.0841    4.3477 C   0  0  0  0  0  0  0  0  0  0  0  0
   -3.7153    1.9995    5.2265 C   0  0  0  0  0  0  0  0  0  0  0  0
  1  2  1  0
  2  3  1  0
  3  4  1  0
  4  5  2  0
  4  6  1  0
  6  7  1  0
  7  8  1  0
  8  9  1  0
  9 10  1  0
 10 11  2  0
 10 12  1  0
  8 13  1  0
 13 14  2  0
 14 15  1  0
 15 16  2  0
 16 17  1  0
 17 18  2  0
 18 13  1  0
  2 19  1  0
  1 20  1  0
M  END
$$$$
s_1458____17513454____12121624
     RDKit          3D

 22 22  0  0  0  0  0  0  0  0999 V2000
    0.9450    1.0000    3.1737 O   0  0  0  0  0  0  0  0  0  0  0  0
    0.3450    1.0000    2.1345 C   0  0  0  0  0  0  0  0  0  0  0  0
    1.0000    1.0000    1.0000 O   0  0  0  0  0  0  0  0  0  0  0  0
    2.4200    1.0000    1.0000 C   0  0  0  0  0  0  0  0  0  0  0  0
    2.9267   -0.4331    1.0000 C   0  0  0  0  0  0  0  0  0  0  0  0
    4.4467   -0.4331    1.0000 C   0  0  0  0  0  0  0  0  0  0  0  0
    5.0967   -0.9960    1.9750 C   0  0  0  0  0  0  0  0  0  0  0  0
    6.6167   -0.9960    1.9750 C   0  0  0  0  0  0  0  0  0  0  0  0
    4.3367   -1.6542    3.1150 C   0  0  0  0  0  0  0  0  0  0  0  0
   -1.1750    1.0000    2.1345 C   0  0  0  0  0  0  0  0  0  0  0  0
   -1.6650    1.0000    3.5204 N   0  0  0  0  0  0  0  0  0  0  0  0
   -2.4526    2.0275    3.9685 C   0  0  0  0  0  0  0  0  0  0  0  0
   -2.7425    2.9275    3.2296 O   0  0  0  0  0  0  0  0  0  0  0  0
   -2.9593    2.0275    5.4016 C   0  0  0  0  0  0  0  0  0  0  0  0
   -1.6817   -0.2411    1.4180 C   0  0  0  0  0  0  0  0  0  0  0  0
   -3.2017   -0.2411    1.4180 C   0  0  0  0  0  0  0  0  0  0  0  0
   -3.8861    0.3644    0.3692 C   0  0  0  0  0  0  0  0  0  0  0  0
   -5.2769    0.3662    0.3646 C   0  0  0  0  0  0  0  0  0  0  0  0
   -5.9666   -0.2391    1.4104 C   0  0  0  0  0  0  0  0  0  0  0  0
   -7.3164   -0.2393    1.4101 O   0  0  0  0  0  0  0  0  0  0  0  0
   -5.2870   -0.8457    2.4618 C   0  0  0  0  0  0  0  0  0  0  0  0
   -3.8962   -0.8449    2.4611 C   0  0  0  0  0  0  0  0  0  0  0  0
  1  2  2  0
  2  3  1  0
  3  4  1  0
  4  5  1  0
  5  6  1  0
  6  7  2  3
  7  8  1  0
  7  9  1  0
  2 10  1  0
 10 11  1  0
 11 12  1  0
 12 13  2  0
 12 14  1  0
 10 15  1  0
 15 16  1  0
 16 17  2  0
 17 18  1  0
 18 19  2  0
 19 20  1  0
 19 21  1  0
 21 22  2  0
 22 16  1  0
M  END
$$$$
s_22____8963080____58844
     RDKit          3D

 18 18  0  0  0  0  0  0  0  0999 V2000
    3.6336    7.4488    3.3307 Br  0  0  0  0  0  0  0  0  0  0  0  0
    3.0718    5.6832    3.9700 C   0  0  0  0  0  0  0  0  0  0  0  0
    2.2687    4.8834    3.1644 C   0  0  0  0  0  0  0  0  0  0  0  0
    1.8777    3.6329    3.6329 C   0  0  0  0  0  0  0  0  0  0  0  0
    2.2779    3.1802    4.8855 C   0  0  0  0  0  0  0  0  0  0  0  0
    3.0806    3.9967    5.6754 C   0  0  0  0  0  0  0  0  0  0  0  0
    3.4828    5.2501    5.2261 C   0  0  0  0  0  0  0  0  0  0  0  0
    1.0000    2.7551    2.7551 C   0  0  0  0  0  0  0  0  0  0  0  0
    1.8776    1.8776    1.8776 C   0  0  0  0  0  0  0  0  0  0  0  0
    2.7263    1.0289    2.7263 N   0  0  0  0  0  0  0  0  0  0  0  0
    3.9607    0.6334    2.2828 C   0  0  0  0  0  0  0  0  0  0  0  0
    4.3491    0.9798    1.2016 O   0  0  0  0  0  0  0  0  0  0  0  0
    4.8383   -0.2442    3.1604 C   0  0  0  0  0  0  0  0  0  0  0  0
    1.0000    1.0000    1.0000 C   0  0  0  0  0  0  0  0  0  0  0  0
    1.8198    0.1802    0.1802 O   0  0  0  0  0  0  0  0  0  0  0  0
    1.0000   -0.6397   -0.6397 C   0  0  0  0  0  0  0  0  0  0  0  0
    1.8776   -1.5172   -1.5172 C   0  0  0  0  0  0  0  0  0  0  0  0
    1.0000   -2.3948   -2.3948 C   0  0  0  0  0  0  0  0  0  0  0  0
  1  2  1  0
  2  3  2  0
  3  4  1  0
  4  5  2  0
  5  6  1  0
  6  7  2  0
  7  2  1  0
  4  8  1  0
  8  9  1  0
  9 10  1  0
 10 11  1  0
 11 12  2  0
 11 13  1  0
  9 14  1  0
 14 15  1  0
 15 16  1  0
 16 17  1  0
 17 18  1  0
M  END
$$$$
s_22____12635594____1055140
     RDKit          3D

 19 19  0  0  0  0  0  0  0  0999 V2000
   -4.7794    5.0168    2.3450 Br  0  0  0  0  0  0  0  0  0  0  0  0
   -3.2258    4.0512    3.0487 C   0  0  0  0  0  0  0  0  0  0  0  0
   -2.7654    2.9161    2.3905 C   0  0  0  0  0  0  0  0  0  0  0  0
   -1.6618    2.2413    2.9031 C   0  0  0  0  0  0  0  0  0  0  0  0
   -1.0217    2.6863    4.0548 C   0  0  0  0  0  0  0  0  0  0  0  0
   -1.4992    3.8236    4.6978 C   0  0  0  0  0  0  0  0  0  0  0  0
   -2.6008    4.5130    4.2022 C   0  0  0  0  0  0  0  0  0  0  0  0
   -1.1550    1.0000    2.1865 C   0  0  0  0  0  0  0  0  0  0  0  0
    0.3150    1.0000    2.1865 N   0  0  0  0  0  0  0  0  0  0  0  0
    1.0000    1.0000    1.0000 C   0  0  0  0  0  0  0  0  0  0  0  0
    0.4000    1.0000   -0.0392 O   0  0  0  0  0  0  0  0  0  0  0  0
    2.5200    1.0000    1.0000 C   0  0  0  0  0  0  0  0  0  0  0  0
    3.1233   -0.7065    1.0000 S   0  0  0  0  0  0  0  0  0  0  0  0
    4.9032   -0.3775    1.0000 C   0  0  0  0  0  0  0  0  0  0  0  0
    5.6619   -1.6947    1.0000 C   0  0  0  0  0  0  0  0  0  0  0  0
    7.1566   -1.4184    1.0000 C   0  0  0  0  0  0  0  0  0  0  0  0
   -1.6617   -0.2411    2.9030 C   0  0  0  0  0  0  0  0  0  0  0  0
   -3.0817   -0.2411    2.9030 O   0  0  0  0  0  0  0  0  0  0  0  0
   -3.5550   -1.4005    3.5724 C   0  0  0  0  0  0  0  0  0  0  0  0
  1  2  1  0
  2  3  2  0
  3  4  1  0
  4  5  2  0
  5  6  1  0
  6  7  2  0
  7  2  1  0
  4  8  1  0
  8  9  1  0
  9 10  1  0
 10 11  2  0
 10 12  1  0
 12 13  1  0
 13 14  1  0
 14 15  1  0
 15 16  1  0
  8 17  1  0
 17 18  1  0
 18 19  1  0
M  END
$$$$
s_272212____13255400____11403114
     RDKit          3D

 20 21  0  0  0  0  0  0  0  0999 V2000
    1.4871   -1.0483    2.7286 S   0  0  0  0  0  0  0  0  0  0  0  0
    1.5213   -0.4275    1.0287 C   0  0  0  0  0  0  0  0  0  0  0  0
    1.0000    1.0000    1.0000 C   0  0  0  0  0  0  0  0  0  0  0  0
    1.8483    1.8483    1.8483 N   0  0  0  0  0  0  0  0  0  0  0  0
    2.9826    2.5392    1.4161 C   0  0  0  0  0  0  0  0  0  0  0  0
    3.4156    2.5270    0.2752 O   0  0  0  0  0  0  0  0  0  0  0  0
    3.5520    3.2536    2.4732 N   0  0  0  0  0  0  0  0  0  0  0  0
    2.7487    3.0118    3.6751 C   0  0  0  0  0  0  0  0  0  0  0  0
    1.6491    2.0881    3.2054 C   0  0  0  0  0  0  0  0  0  0  0  0
    0.7552    1.6275    3.8971 O   0  0  0  0  0  0  0  0  0  0  0  0
    3.5849    2.3711    4.7713 C   0  0  0  0  0  0  0  0  0  0  0  0
    4.7379    3.2935    5.1339 C   0  0  0  0  0  0  0  0  0  0  0  0
    4.5777    4.2467    6.1348 C   0  0  0  0  0  0  0  0  0  0  0  0
    3.4051    4.3665    6.7935 O   0  0  0  0  0  0  0  0  0  0  0  0
    5.6328    5.0910    6.4664 C   0  0  0  0  0  0  0  0  0  0  0  0
    6.8480    4.9815    5.7975 C   0  0  0  0  0  0  0  0  0  0  0  0
    7.0079    4.0277    4.7972 C   0  0  0  0  0  0  0  0  0  0  0  0
    5.9530    3.1836    4.4660 C   0  0  0  0  0  0  0  0  0  0  0  0
    0.6437   -1.3051    0.1511 C   0  0  0  0  0  0  0  0  0  0  0  0
    2.1439   -2.7094    2.4367 C   0  0  0  0  0  0  0  0  0  0  0  0
  1  2  1  0
  2  3  1  0
  3  4  1  0
  4  5  1  0
  5  6  2  0
  5  7  1  0
  7  8  1  0
  8  9  1  0
  9  4  1  0
  9 10  2  0
  8 11  1  0
 11 12  1  0
 12 13  2  0
 13 14  1  0
 13 15  1  0
 15 16  2  0
 16 17  1  0
 17 18  2  0
 18 12  1  0
  2 19  1  0
  1 20  1  0
M  END
$$$$
s_22____12206138____17611650
     RDKit          3D

 21 21  0  0  0  0  0  0  0  0999 V2000
    4.0832   -1.3910    2.8352 O   0  0  0  0  0  0  0  0  0  0  0  0
    3.9789   -0.3536    2.2411 C   0  0  0  0  0  0  0  0  0  0  0  0
    4.6181    0.7095    2.6621 O   0  0  0  0  0  0  0  0  0  0  0  0
    5.4345    0.6343    3.8216 C   0  0  0  0  0  0  0  0  0  0  0  0
    3.1050   -0.2731    1.0000 C   0  0  0  0  0  0  0  0  0  0  0  0
    2.3700    1.0000    1.0000 N   0  0  0  0  0  0  0  0  0  0  0  0
    1.0000    1.0000    1.0000 C   0  0  0  0  0  0  0  0  0  0  0  0
    0.4000   -0.0392    1.0000 O   0  0  0  0  0  0  0  0  0  0  0  0
    0.2400    2.3164    1.0000 C   0  0  0  0  0  0  0  0  0  0  0  0
    0.0843    2.9770   -0.1087 C   0  0  0  0  0  0  0  0  0  0  0  0
   -0.6757    4.2934   -0.1087 C   0  0  0  0  0  0  0  0  0  0  0  0
    0.2932    5.4378    0.1401 C   0  0  0  0  0  0  0  0  0  0  0  0
    0.6623    2.4331   -1.4051 C   0  0  0  0  0  0  0  0  0  0  0  0
    3.9789   -0.3536   -0.2411 C   0  0  0  0  0  0  0  0  0  0  0  0
    4.7391   -1.6703   -0.2411 C   0  0  0  0  0  0  0  0  0  0  0  0
    4.1830   -2.7945   -0.8436 C   0  0  0  0  0  0  0  0  0  0  0  0
    2.9692   -2.7337   -1.4322 O   0  0  0  0  0  0  0  0  0  0  0  0
    4.8786   -3.9995   -0.8435 C   0  0  0  0  0  0  0  0  0  0  0  0
    6.1304   -4.0800   -0.2412 C   0  0  0  0  0  0  0  0  0  0  0  0
    6.6863   -2.9555    0.3606 C   0  0  0  0  0  0  0  0  0  0  0  0
    5.9908   -1.7507    0.3600 C   0  0  0  0  0  0  0  0  0  0  0  0
  1  2  2  0
  2  3  1  0
  3  4  1  0
  2  5  1  0
  5  6  1  0
  6  7  1  0
  7  8  2  0
  7  9  1  0
  9 10  2  0
 10 11  1  0
 11 12  1  0
 10 13  1  0
  5 14  1  0
 14 15  1  0
 15 16  2  0
 16 17  1  0
 16 18  1  0
 18 19  2  0
 19 20  1  0
 20 21  2  0
 21 15  1  0
M  END
$$$$
s_11a____14594094____13759172
     RDKit          3D

 22 22  0  0  0  0  0  0  0  0999 V2000
    4.6995    0.8569   -0.3248 O   0  0  0  0  0  0  0  0  0  0  0  0
    4.2359   -0.2052   -0.0133 C   0  0  0  0  0  0  0  0  0  0  0  0
    4.7259   -1.3566   -0.5711 N   0  0  0  0  0  0  0  0  0  0  0  0
    6.0114   -1.3387   -1.2839 C   0  0  0  0  0  0  0  0  0  0  0  0
    3.9662   -2.6098   -0.4568 C   0  0  0  0  0  0  0  0  0  0  0  0
    3.1050   -0.2731    1.0000 C   0  0  0  0  0  0  0  0  0  0  0  0
    2.3700    1.0000    1.0000 N   0  0  0  0  0  0  0  0  0  0  0  0
    1.0000    1.0000    1.0000 C   0  0  0  0  0  0  0  0  0  0  0  0
    0.4000   -0.0392    1.0000 O   0  0  0  0  0  0  0  0  0  0  0  0
    0.2400    2.3164    1.0000 C   0  0  0  0  0  0  0  0  0  0  0  0
    0.0843    2.9770   -0.1087 C   0  0  0  0  0  0  0  0  0  0  0  0
    0.6623    2.4331   -1.4051 C   0  0  0  0  0  0  0  0  0  0  0  0
   -0.4599    2.2092   -2.4055 C   0  0  0  0  0  0  0  0  0  0  0  0
    1.6570    3.4315   -1.9745 C   0  0  0  0  0  0  0  0  0  0  0  0
   -0.6757    4.2934   -0.1087 C   0  0  0  0  0  0  0  0  0  0  0  0
    3.6795   -0.5264    2.3842 C   0  0  0  0  0  0  0  0  0  0  0  0
    2.6721   -1.3031    3.2167 C   0  0  0  0  0  0  0  0  0  0  0  0
    1.7361   -0.6164    3.9831 C   0  0  0  0  0  0  0  0  0  0  0  0
    0.8166   -1.3310    4.7440 C   0  0  0  0  0  0  0  0  0  0  0  0
    0.8367   -2.7217    4.7338 C   0  0  0  0  0  0  0  0  0  0  0  0
    1.7758   -3.3970    3.9641 C   0  0  0  0  0  0  0  0  0  0  0  0
    2.7010   -2.6940    3.1994 C   0  0  0  0  0  0  0  0  0  0  0  0
  1  2  2  0
  2  3  1  0
  3  4  1  0
  3  5  1  0
  2  6  1  0
  6  7  1  0
  7  8  1  0
  8  9  2  0
  8 10  1  0
 10 11  2  0
 11 12  1  0
 12 13  1  0
 12 14  1  0
 11 15  1  0
  6 16  1  0
 16 17  1  0
 17 18  2  0
 18 19  1  0
 19 20  2  0
 20 21  1  0
 21 22  2  0
 22 17  1  0
M  END
$$$$
s_527a____6362582____217438
     RDKit          3D

 22 22  0  0  0  0  0  0  0  0999 V2000
    1.6287   -2.8076   -4.4731 Cl  0  0  0  0  0  0  0  0  0  0  0  0
    2.0403   -1.5646   -3.2675 C   0  0  0  0  0  0  0  0  0  0  0  0
    2.8044   -1.9046   -2.1567 C   0  0  0  0  0  0  0  0  0  0  0  0
    3.1278   -0.9363   -1.2116 C   0  0  0  0  0  0  0  0  0  0  0  0
    2.6787    0.3673   -1.3944 C   0  0  0  0  0  0  0  0  0  0  0  0
    1.9143    0.7077   -2.5049 C   0  0  0  0  0  0  0  0  0  0  0  0
    1.5908   -0.2609   -3.4501 C   0  0  0  0  0  0  0  0  0  0  0  0
    3.0267    1.4309   -0.3667 C   0  0  0  0  0  0  0  0  0  0  0  0
    4.4855    1.6046   -0.3161 N   0  0  0  0  0  0  0  0  0  0  0  0
    5.0404    2.8242   -0.6018 C   0  0  0  0  0  0  0  0  0  0  0  0
    4.3356    3.7506   -0.8934 O   0  0  0  0  0  0  0  0  0  0  0  0
    6.5489    3.0038   -0.5495 C   0  0  0  0  0  0  0  0  0  0  0  0
    2.5200    1.0000    1.0000 C   0  0  0  0  0  0  0  0  0  0  0  0
    1.0000    1.0000    1.0000 C   0  0  0  0  0  0  0  0  0  0  0  0
    0.4000    1.0000   -0.0392 O   0  0  0  0  0  0  0  0  0  0  0  0
    0.3150    1.0000    2.1865 N   0  0  0  0  0  0  0  0  0  0  0  0
   -1.1550    1.0000    2.1865 C   0  0  0  0  0  0  0  0  0  0  0  0
   -1.6617    1.0000    3.6195 C   0  0  0  0  0  0  0  0  0  0  0  0
   -3.4717    1.0000    3.6195 S   0  0  0  0  0  0  0  0  0  0  0  0
   -3.7548    1.0000    5.4072 C   0  0  0  0  0  0  0  0  0  0  0  0
   -1.1550   -0.2411    4.3361 C   0  0  0  0  0  0  0  0  0  0  0  0
   -1.1550    2.2411    4.3361 C   0  0  0  0  0  0  0  0  0  0  0  0
  1  2  1  0
  2  3  2  0
  3  4  1  0
  4  5  2  0
  5  6  1  0
  6  7  2  0
  7  2  1  0
  5  8  1  0
  8  9  1  0
  9 10  1  0
 10 11  2  0
 10 12  1  0
  8 13  1  0
 13 14  1  0
 14 15  2  0
 14 16  1  0
 16 17  1  0
 17 18  1  0
 18 19  1  0
 19 20  1  0
 18 21  1  0
 18 22  1  0
M  END
$$$$
s_188690b____14468518____8287470
     RDKit          3D

 21 21  0  0  0  0  0  0  0  0999 V2000
    0.6517    1.8583   -0.5550 S   0  0  0  0  0  0  0  0  0  0  0  0
    1.0000    1.0000    1.0000 C   0  0  0  0  0  0  0  0  0  0  0  0
    1.8776    1.8776    1.8776 C   0  0  0  0  0  0  0  0  0  0  0  0
    3.0725    1.7997    1.7997 O   0  0  0  0  0  0  0  0  0  0  0  0
    1.3043    2.7574    2.7574 N   0  0  0  0  0  0  0  0  0  0  0  0
    2.1530    3.6061    3.6061 C   0  0  0  0  0  0  0  0  0  0  0  0
    1.8605    3.3136    5.0688 C   0  0  0  0  0  0  0  0  0  0  0  0
    2.7186    3.4875    5.9039 O   0  0  0  0  0  0  0  0  0  0  0  0
    0.7334    2.8934    5.4088 O   0  0  0  0  0  0  0  0  0  0  0  0
    1.8605    5.0688    3.3136 C   0  0  0  0  0  0  0  0  0  0  0  0
    2.8623    5.9432    4.0508 C   0  0  0  0  0  0  0  0  0  0  0  0
    4.1208    6.1723    3.5033 C   0  0  0  0  0  0  0  0  0  0  0  0
    4.4690    5.6252    2.3189 O   0  0  0  0  0  0  0  0  0  0  0  0
    5.0377    6.9723    4.1780 C   0  0  0  0  0  0  0  0  0  0  0  0
    4.6956    7.5437    5.3998 C   0  0  0  0  0  0  0  0  0  0  0  0
    3.4368    7.3150    5.9465 C   0  0  0  0  0  0  0  0  0  0  0  0
    2.5202    6.5153    5.2716 C   0  0  0  0  0  0  0  0  0  0  0  0
   -0.3759    0.5981   -1.3500 C   0  0  0  0  0  0  0  0  0  0  0  0
   -0.8140    1.0914   -2.7194 C   0  0  0  0  0  0  0  0  0  0  0  0
   -1.6769    0.0332   -3.3870 C   0  0  0  0  0  0  0  0  0  0  0  0
   -2.1149    0.5265   -4.7564 C   0  0  0  0  0  0  0  0  0  0  0  0
  1  2  1  0
  2  3  1  0
  3  4  2  0
  3  5  1  0
  5  6  1  0
  6  7  1  0
  7  8  1  0
  7  9  2  0
  6 10  1  0
 10 11  1  0
 11 12  2  0
 12 13  1  0
 12 14  1  0
 14 15  2  0
 15 16  1  0
 16 17  2  0
 17 11  1  0
  1 18  1  0
 18 19  1  0
 19 20  1  0
 20 21  1  0
M  CHG  1   8  -1
M  END
$$$$
s_22____9866142____548060
     RDKit          3D

 20 20  0  0  0  0  0  0  0  0999 V2000
    0.8251    4.4360   -2.0741 S   0  0  0  0  0  0  0  0  0  0  0  0
    1.2215    2.8306   -1.6695 C   0  0  0  0  0  0  0  0  0  0  0  0
    0.2272    2.4116   -0.8364 C   0  0  0  0  0  0  0  0  0  0  0  0
   -0.7741    3.3832   -0.5686 C   0  0  0  0  0  0  0  0  0  0  0  0
   -0.6184    4.5911   -1.1786 C   0  0  0  0  0  0  0  0  0  0  0  0
    0.2650    1.0000   -0.2731 C   0  0  0  0  0  0  0  0  0  0  0  0
    1.0000    1.0000    1.0000 N   0  0  0  0  0  0  0  0  0  0  0  0
    0.3150    1.0000    2.1865 C   0  0  0  0  0  0  0  0  0  0  0  0
    0.9150    1.0000    3.2257 O   0  0  0  0  0  0  0  0  0  0  0  0
   -1.2050    1.0000    2.1865 C   0  0  0  0  0  0  0  0  0  0  0  0
   -1.8083   -0.7065    2.1865 S   0  0  0  0  0  0  0  0  0  0  0  0
   -3.5882   -0.3775    2.1865 C   0  0  0  0  0  0  0  0  0  0  0  0
   -4.3469   -1.6947    2.1865 C   0  0  0  0  0  0  0  0  0  0  0  0
   -3.9562    0.4192    3.4275 C   0  0  0  0  0  0  0  0  0  0  0  0
    2.4700    1.0000    1.0000 C   0  0  0  0  0  0  0  0  0  0  0  0
    2.9767   -0.4331    1.0000 C   0  0  0  0  0  0  0  0  0  0  0  0
    4.4467   -0.4331    1.0000 N   0  0  0  0  0  0  0  0  0  0  0  0
    5.1317   -0.2270    2.1684 C   0  0  0  0  0  0  0  0  0  0  0  0
    4.5317   -0.0466    3.1919 O   0  0  0  0  0  0  0  0  0  0  0  0
    6.6517   -0.2270    2.1684 C   0  0  0  0  0  0  0  0  0  0  0  0
  1  2  1  0
  2  3  2  0
  3  4  1  0
  4  5  2  0
  5  1  1  0
  3  6  1  0
  6  7  1  0
  7  8  1  0
  8  9  2  0
  8 10  1  0
 10 11  1  0
 11 12  1  0
 12 13  1  0
 12 14  1  0
  7 15  1  0
 15 16  1  0
 16 17  1  0
 17 18  1  0
 18 19  2  0
 18 20  1  0
M  END
$$$$
s_22____11620984____107338
     RDKit          3D

 23 23  0  0  0  0  0  0  0  0999 V2000
   -2.3835   -1.7720    3.2548 S   0  0  0  0  0  0  0  0  0  0  0  0
   -1.0411   -0.5764    3.4659 C   0  0  0  0  0  0  0  0  0  0  0  0
   -1.0073    0.3635    2.2717 C   0  0  0  0  0  0  0  0  0  0  0  0
    0.3150    1.0000    2.1865 N   0  0  0  0  0  0  0  0  0  0  0  0
    1.0000    1.0000    1.0000 C   0  0  0  0  0  0  0  0  0  0  0  0
    0.4000    1.0000   -0.0392 O   0  0  0  0  0  0  0  0  0  0  0  0
    2.5200    1.0000    1.0000 C   0  0  0  0  0  0  0  0  0  0  0  0
    3.0267   -0.4331    1.0000 C   0  0  0  0  0  0  0  0  0  0  0  0
    3.4169   -0.8148    2.3649 N   0  0  0  0  0  0  0  0  0  0  0  0
    2.4971   -1.3822    3.2069 C   0  0  0  0  0  0  0  0  0  0  0  0
    1.5088   -1.8941    2.7586 O   0  0  0  0  0  0  0  0  0  0  0  0
    2.7286   -1.3632    4.7091 C   0  0  0  0  0  0  0  0  0  0  0  0
    4.2306   -0.5448    0.0788 C   0  0  0  0  0  0  0  0  0  0  0  0
    5.5065   -0.3357    0.5917 C   0  0  0  0  0  0  0  0  0  0  0  0
    6.6112   -0.4376   -0.2472 C   0  0  0  0  0  0  0  0  0  0  0  0
    6.4252   -0.7485   -1.5906 C   0  0  0  0  0  0  0  0  0  0  0  0
    7.5500   -0.8532   -2.4509 O   0  0  0  0  0  0  0  0  0  0  0  0
    7.3673   -1.1702   -3.8230 C   0  0  0  0  0  0  0  0  0  0  0  0
    5.1513   -0.9583   -2.1087 C   0  0  0  0  0  0  0  0  0  0  0  0
    4.0503   -0.8555   -1.2651 C   0  0  0  0  0  0  0  0  0  0  0  0
    0.9023    1.6365    3.3742 C   0  0  0  0  0  0  0  0  0  0  0  0
    0.0530    2.8293    3.7820 C   0  0  0  0  0  0  0  0  0  0  0  0
   -2.1669   -2.7139    4.7852 C   0  0  0  0  0  0  0  0  0  0  0  0
  1  2  1  0
  2  3  1  0
  3  4  1  0
  4  5  1  0
  5  6  2  0
  5  7  1  0
  7  8  1  0
  8  9  1  0
  9 10  1  0
 10 11  2  0
 10 12  1  0
  8 13  1  0
 13 14  2  0
 14 15  1  0
 15 16  2  0
 16 17  1  0
 17 18  1  0
 16 19  1  0
 19 20  2  0
 20 13  1  0
  4 21  1  0
 21 22  1  0
  1 23  1  0
M  END
$$$$
s_22____7866888____12624298
     RDKit          3D

 21 21  0  0  0  0  0  0  0  0999 V2000
    2.5652    6.3385    0.1087 Br  0  0  0  0  0  0  0  0  0  0  0  0
    3.1025    4.7404    1.1079 C   0  0  0  0  0  0  0  0  0  0  0  0
    2.6367    3.4918    0.7108 C   0  0  0  0  0  0  0  0  0  0  0  0
    3.0268    2.3670    1.4310 C   0  0  0  0  0  0  0  0  0  0  0  0
    3.8687    2.4782    2.5323 C   0  0  0  0  0  0  0  0  0  0  0  0
    4.3225    3.7369    2.9127 C   0  0  0  0  0  0  0  0  0  0  0  0
    3.9448    4.8741    2.2065 C   0  0  0  0  0  0  0  0  0  0  0  0
    2.5200    1.0000    1.0000 C   0  0  0  0  0  0  0  0  0  0  0  0
    3.0100    0.7000   -0.3531 N   0  0  0  0  0  0  0  0  0  0  0  0
    3.7976   -0.4001   -0.5681 C   0  0  0  0  0  0  0  0  0  0  0  0
    4.0875   -1.1188    0.3480 O   0  0  0  0  0  0  0  0  0  0  0  0
    4.3043   -0.7103   -1.9672 C   0  0  0  0  0  0  0  0  0  0  0  0
    1.0000    1.0000    1.0000 C   0  0  0  0  0  0  0  0  0  0  0  0
    0.4000    1.0000   -0.0392 O   0  0  0  0  0  0  0  0  0  0  0  0
    0.3150    1.0000    2.1865 N   0  0  0  0  0  0  0  0  0  0  0  0
    1.0458    0.8890    3.4571 C   0  0  0  0  0  0  0  0  0  0  0  0
    1.0553   -0.5615    3.9111 C   0  0  0  0  0  0  0  0  0  0  0  0
    0.5252   -0.8890    5.0521 C   0  0  0  0  0  0  0  0  0  0  0  0
   -1.1508    1.1110    2.1889 C   0  0  0  0  0  0  0  0  0  0  0  0
   -1.5479    2.5768    2.2522 C   0  0  0  0  0  0  0  0  0  0  0  0
   -2.9638    2.6840    2.2545 O   0  0  0  0  0  0  0  0  0  0  0  0
  1  2  1  0
  2  3  2  0
  3  4  1  0
  4  5  2  0
  5  6  1  0
  6  7  2  0
  7  2  1  0
  4  8  1  0
  8  9  1  0
  9 10  1  0
 10 11  2  0
 10 12  1  0
  8 13  1  0
 13 14  2  0
 13 15  1  0
 15 16  1  0
 16 17  1  0
 17 18  2  0
 15 19  1  0
 19 20  1  0
 20 21  1  0
M  END
$$$$
s_22____14588660____548060
     RDKit          3D

 23 23  0  0  0  0  0  0  0  0999 V2000
   -1.8083   -0.7065    2.1865 S   0  0  0  0  0  0  0  0  0  0  0  0
   -3.5882   -0.3775    2.1865 C   0  0  0  0  0  0  0  0  0  0  0  0
   -4.3469   -1.6947    2.1865 C   0  0  0  0  0  0  0  0  0  0  0  0
   -3.9562    0.4192    3.4275 C   0  0  0  0  0  0  0  0  0  0  0  0
   -1.2050    1.0000    2.1865 C   0  0  0  0  0  0  0  0  0  0  0  0
    0.3150    1.0000    2.1865 C   0  0  0  0  0  0  0  0  0  0  0  0
    0.9150    1.0000    3.2257 O   0  0  0  0  0  0  0  0  0  0  0  0
    1.0000    1.0000    1.0000 N   0  0  0  0  0  0  0  0  0  0  0  0
    2.4700    1.0000    1.0000 C   0  0  0  0  0  0  0  0  0  0  0  0
    2.9767    2.2411    0.2835 C   0  0  0  0  0  0  0  0  0  0  0  0
    3.9272    2.8352    0.7118 O   0  0  0  0  0  0  0  0  0  0  0  0
    2.3756    2.6621   -0.8017 O   0  0  0  0  0  0  0  0  0  0  0  0
    2.8490    3.8216   -1.4711 C   0  0  0  0  0  0  0  0  0  0  0  0
    3.8863    3.4204   -2.5071 C   0  0  0  0  0  0  0  0  0  0  0  0
    2.9767   -0.2411    0.2835 C   0  0  0  0  0  0  0  0  0  0  0  0
    4.4970   -0.2411    0.2835 C   0  0  0  0  0  0  0  0  0  0  0  0
    5.1809   -0.8469    1.3328 C   0  0  0  0  0  0  0  0  0  0  0  0
    6.5716   -0.8511    1.3373 C   0  0  0  0  0  0  0  0  0  0  0  0
    7.2613   -0.2491    0.2899 C   0  0  0  0  0  0  0  0  0  0  0  0
    8.7814   -0.2515    0.2889 C   0  0  0  0  0  0  0  0  0  0  0  0
    9.9214   -0.2533    0.2892 N   0  0  0  0  0  0  0  0  0  0  0  0
    6.5787    0.3575   -0.7589 C   0  0  0  0  0  0  0  0  0  0  0  0
    5.1877    0.3630   -0.7626 C   0  0  0  0  0  0  0  0  0  0  0  0
  1  2  1  0
  2  3  1  0
  2  4  1  0
  1  5  1  0
  5  6  1  0
  6  7  2  0
  6  8  1  0
  8  9  1  0
  9 10  1  0
 10 11  2  0
 10 12  1  0
 12 13  1  0
 13 14  1  0
  9 15  1  0
 15 16  1  0
 16 17  2  0
 17 18  1  0
 18 19  2  0
 19 20  1  0
 20 21  3  0
 19 22  1  0
 22 23  2  0
 23 16  1  0
M  END
$$$$
s_22____6956712____16887748
     RDKit          3D

 25 25  0  0  0  0  0  0  0  0999 V2000
   -0.1378    3.0374   -4.8894 S   0  0  0  0  0  0  0  0  0  0  0  0
    0.7219    2.2379   -3.5118 C   0  0  0  0  0  0  0  0  0  0  0  0
   -0.2984    1.6516   -2.5498 C   0  0  0  0  0  0  0  0  0  0  0  0
    0.3997    1.0022   -1.4309 N   0  0  0  0  0  0  0  0  0  0  0  0
    0.7075    1.7208   -0.3059 C   0  0  0  0  0  0  0  0  0  0  0  0
    0.7461    2.9193   -0.3513 O   0  0  0  0  0  0  0  0  0  0  0  0
    1.0000    1.0000    1.0000 C   0  0  0  0  0  0  0  0  0  0  0  0
    1.8487    1.8487    1.8487 N   0  0  0  0  0  0  0  0  0  0  0  0
    3.0831    1.4052    2.2442 C   0  0  0  0  0  0  0  0  0  0  0  0
    3.4716    0.3240    1.8978 O   0  0  0  0  0  0  0  0  0  0  0  0
    3.9607    2.2828    3.1218 C   0  0  0  0  0  0  0  0  0  0  0  0
    5.1807    1.6094    3.3950 O   0  0  0  0  0  0  0  0  0  0  0  0
    6.0005    2.4293    4.2149 C   0  0  0  0  0  0  0  0  0  0  0  0
    5.2797    2.7218    5.5207 C   0  0  0  0  0  0  0  0  0  0  0  0
    7.3064    1.7085    4.5074 C   0  0  0  0  0  0  0  0  0  0  0  0
   -0.3059    0.7075    1.7208 C   0  0  0  0  0  0  0  0  0  0  0  0
   -0.1034   -0.4483    2.6871 C   0  0  0  0  0  0  0  0  0  0  0  0
   -0.3182   -1.7513    2.2501 C   0  0  0  0  0  0  0  0  0  0  0  0
   -0.1334   -2.8121    3.1305 C   0  0  0  0  0  0  0  0  0  0  0  0
    0.2650   -2.5557    4.4386 C   0  0  0  0  0  0  0  0  0  0  0  0
    0.4451   -3.5822    5.2965 O   0  0  0  0  0  0  0  0  0  0  0  0
    0.4809   -1.2545    4.8808 C   0  0  0  0  0  0  0  0  0  0  0  0
    0.2950   -0.1975    3.9961 C   0  0  0  0  0  0  0  0  0  0  0  0
    0.7677   -0.4183   -1.5193 C   0  0  0  0  0  0  0  0  0  0  0  0
    1.3008    3.6147   -5.8241 C   0  0  0  0  0  0  0  0  0  0  0  0
  1  2  1  0
  2  3  1  0
  3  4  1  0
  4  5  1  0
  5  6  2  0
  5  7  1  0
  7  8  1  0
  8  9  1  0
  9 10  2  0
  9 11  1  0
 11 12  1  0
 12 13  1  0
 13 14  1  0
 13 15  1  0
  7 16  1  0
 16 17  1  0
 17 18  2  0
 18 19  1  0
 19 20  2  0
 20 21  1  0
 20 22  1  0
 22 23  2  0
 23 17  1  0
  4 24  1  0
  1 25  1  0
M  END
$$$$
s_22____7966704____1722870
     RDKit          3D

 20 20  0  0  0  0  0  0  0  0999 V2000
    0.4000   -0.0392    1.0000 O   0  0  0  0  0  0  0  0  0  0  0  0
    1.0000    1.0000    1.0000 C   0  0  0  0  0  0  0  0  0  0  0  0
    2.3700    1.0000    1.0000 N   0  0  0  0  0  0  0  0  0  0  0  0
    3.1050   -0.2731    1.0000 C   0  0  0  0  0  0  0  0  0  0  0  0
    3.9789   -0.3536    2.2411 C   0  0  0  0  0  0  0  0  0  0  0  0
    4.9016    0.7257    2.2411 O   0  0  0  0  0  0  0  0  0  0  0  0
    3.9789   -0.3536   -0.2411 C   0  0  0  0  0  0  0  0  0  0  0  0
    3.1050   -0.2731   -1.4822 C   0  0  0  0  0  0  0  0  0  0  0  0
    2.8226    0.9691   -2.0410 C   0  0  0  0  0  0  0  0  0  0  0  0
    2.0241    1.0476   -3.1770 C   0  0  0  0  0  0  0  0  0  0  0  0
    1.5177   -0.1192   -3.7409 C   0  0  0  0  0  0  0  0  0  0  0  0
    0.7420   -0.0476   -4.8432 O   0  0  0  0  0  0  0  0  0  0  0  0
    1.7968   -1.3640   -3.1858 C   0  0  0  0  0  0  0  0  0  0  0  0
    2.5962   -1.4366   -2.0500 C   0  0  0  0  0  0  0  0  0  0  0  0
    0.2400    2.3164    1.0000 C   0  0  0  0  0  0  0  0  0  0  0  0
    0.0843    2.9770    2.1087 C   0  0  0  0  0  0  0  0  0  0  0  0
   -0.6757    4.2934    2.1087 C   0  0  0  0  0  0  0  0  0  0  0  0
   -2.1512    4.0265    2.3576 C   0  0  0  0  0  0  0  0  0  0  0  0
   -2.9112    5.3429    2.3576 C   0  0  0  0  0  0  0  0  0  0  0  0
    0.6623    2.4331    3.4051 C   0  0  0  0  0  0  0  0  0  0  0  0
  1  2  2  0
  2  3  1  0
  3  4  1  0
  4  5  1  0
  5  6  1  0
  4  7  1  0
  7  8  1  0
  8  9  2  0
  9 10  1  0
 10 11  2  0
 11 12  1  0
 11 13  1  0
 13 14  2  0
 14  8  1  0
  2 15  1  0
 15 16  2  0
 16 17  1  0
 17 18  1  0
 18 19  1  0
 16 20  1  0
M  END
$$$$
s_22____564362____548060
     RDKit          3D

 22 22  0  0  0  0  0  0  0  0999 V2000
   -0.1012    1.0000    4.8786 S   0  0  0  0  0  0  0  0  0  0  0  0
    1.0736    1.0000    6.2555 C   0  0  0  0  0  0  0  0  0  0  0  0
    0.3123    1.0000    7.5711 C   0  0  0  0  0  0  0  0  0  0  0  0
    1.9476   -0.2411    6.1758 C   0  0  0  0  0  0  0  0  0  0  0  0
    1.0750    1.0000    3.5028 C   0  0  0  0  0  0  0  0  0  0  0  0
    0.3150    1.0000    2.1865 C   0  0  0  0  0  0  0  0  0  0  0  0
   -0.8850    1.0000    2.1865 O   0  0  0  0  0  0  0  0  0  0  0  0
    1.0000    1.0000    1.0000 N   0  0  0  0  0  0  0  0  0  0  0  0
    2.4700    1.0000    1.0000 C   0  0  0  0  0  0  0  0  0  0  0  0
    2.9768   -0.4335    1.0000 C   0  0  0  0  0  0  0  0  0  0  0  0
    3.2087   -1.0892   -0.2051 C   0  0  0  0  0  0  0  0  0  0  0  0
    2.9882   -0.4677   -1.3834 O   0  0  0  0  0  0  0  0  0  0  0  0
    3.2303   -1.1524   -2.6036 C   0  0  0  0  0  0  0  0  0  0  0  0
    2.9055   -0.2361   -3.7720 C   0  0  0  0  0  0  0  0  0  0  0  0
    3.6722   -2.4011   -0.2052 C   0  0  0  0  0  0  0  0  0  0  0  0
    3.9045   -3.0568    1.0000 C   0  0  0  0  0  0  0  0  0  0  0  0
    3.6732   -2.4005    2.2048 C   0  0  0  0  0  0  0  0  0  0  0  0
    3.2099   -1.0888    2.2045 C   0  0  0  0  0  0  0  0  0  0  0  0
    0.2650    1.0000   -0.2731 C   0  0  0  0  0  0  0  0  0  0  0  0
    0.0117    2.4331   -0.7118 C   0  0  0  0  0  0  0  0  0  0  0  0
   -0.7558    3.1025    0.2778 O   0  0  0  0  0  0  0  0  0  0  0  0
   -0.7483    2.4331   -2.0282 C   0  0  0  0  0  0  0  0  0  0  0  0
  1  2  1  0
  2  3  1  0
  2  4  1  0
  1  5  1  0
  5  6  1  0
  6  7  2  0
  6  8  1  0
  8  9  1  0
  9 10  1  0
 10 11  2  0
 11 12  1  0
 12 13  1  0
 13 14  1  0
 11 15  1  0
 15 16  2  0
 16 17  1  0
 17 18  2  0
 18 10  1  0
  8 19  1  0
 19 20  1  0
 20 21  1  0
 20 22  1  0
M  END
$$$$
s_22____12210646____17057108
     RDKit          3D

 26 26  0  0  0  0  0  0  0  0999 V2000
    0.4000    1.0000   -0.0392 O   0  0  0  0  0  0  0  0  0  0  0  0
    1.0000    1.0000    1.0000 C   0  0  0  0  0  0  0  0  0  0  0  0
    0.3150    1.0000    2.1865 N   0  0  0  0  0  0  0  0  0  0  0  0
   -1.1550    1.0000    2.1865 C   0  0  0  0  0  0  0  0  0  0  0  0
   -1.6617    1.0000    3.6195 C   0  0  0  0  0  0  0  0  0  0  0  0
   -3.1817    1.0000    3.6195 C   0  0  0  0  0  0  0  0  0  0  0  0
   -3.6883    1.0000    5.0526 C   0  0  0  0  0  0  0  0  0  0  0  0
   -3.9050    2.1258    5.6654 C   0  0  0  0  0  0  0  0  0  0  0  0
   -3.6883    2.2411    2.9030 C   0  0  0  0  0  0  0  0  0  0  0  0
   -3.6883   -0.2411    2.9030 C   0  0  0  0  0  0  0  0  0  0  0  0
    2.5200    1.0000    1.0000 C   0  0  0  0  0  0  0  0  0  0  0  0
    3.0100    1.0000   -0.3859 N   0  0  0  0  0  0  0  0  0  0  0  0
    3.7976   -0.0275   -0.8340 C   0  0  0  0  0  0  0  0  0  0  0  0
    4.0138   -0.9711   -0.1248 O   0  0  0  0  0  0  0  0  0  0  0  0
    4.3977    0.0277   -2.2295 C   0  0  0  0  0  0  0  0  0  0  0  0
    4.8450   -1.3646   -2.6441 C   0  0  0  0  0  0  0  0  0  0  0  0
    3.6531   -2.1413   -3.1792 C   0  0  0  0  0  0  0  0  0  0  0  0
    5.9057   -1.2544   -3.7273 C   0  0  0  0  0  0  0  0  0  0  0  0
    3.0267    2.2411    1.7165 C   0  0  0  0  0  0  0  0  0  0  0  0
    4.5467    2.2411    1.7165 C   0  0  0  0  0  0  0  0  0  0  0  0
    5.2311    1.6356    2.7653 C   0  0  0  0  0  0  0  0  0  0  0  0
    6.6219    1.6325    2.7691 C   0  0  0  0  0  0  0  0  0  0  0  0
    7.3116    2.2356    1.7220 C   0  0  0  0  0  0  0  0  0  0  0  0
    8.6614    2.2352    1.7220 O   0  0  0  0  0  0  0  0  0  0  0  0
    6.6320    2.8428    0.6710 C   0  0  0  0  0  0  0  0  0  0  0  0
    5.2412    2.8426    0.6720 C   0  0  0  0  0  0  0  0  0  0  0  0
  1  2  2  0
  2  3  1  0
  3  4  1  0
  4  5  1  0
  5  6  1  0
  6  7  1  0
  7  8  2  0
  6  9  1  0
  6 10  1  0
  2 11  1  0
 11 12  1  0
 12 13  1  0
 13 14  2  0
 13 15  1  0
 15 16  1  0
 16 17  1  0
 16 18  1  0
 11 19  1  0
 19 20  1  0
 20 21  2  0
 21 22  1  0
 22 23  2  0
 23 24  1  0
 23 25  1  0
 25 26  2  0
 26 20  1  0
M  END
$$$$
s_62____2390328____7118646
     RDKit          3D

 19 19  0  0  0  0  0  0  0  0999 V2000
   -0.0617    2.8389   -0.7065 S   0  0  0  0  0  0  0  0  0  0  0  0
   -0.9516    4.3803   -0.3775 C   0  0  0  0  0  0  0  0  0  0  0  0
   -1.3309    5.0373   -1.6947 C   0  0  0  0  0  0  0  0  0  0  0  0
   -2.2104    4.0784    0.4192 C   0  0  0  0  0  0  0  0  0  0  0  0
    0.2400    2.3164    1.0000 C   0  0  0  0  0  0  0  0  0  0  0  0
    1.0000    1.0000    1.0000 C   0  0  0  0  0  0  0  0  0  0  0  0
    0.4000   -0.0392    1.0000 O   0  0  0  0  0  0  0  0  0  0  0  0
    2.3700    1.0000    1.0000 N   0  0  0  0  0  0  0  0  0  0  0  0
    3.1050   -0.2731    1.0000 C   0  0  0  0  0  0  0  0  0  0  0  0
    3.9790   -0.3536    2.2413 C   0  0  0  0  0  0  0  0  0  0  0  0
    3.4269   -0.0920    3.4910 C   0  0  0  0  0  0  0  0  0  0  0  0
    4.2304   -0.1660    4.6241 C   0  0  0  0  0  0  0  0  0  0  0  0
    5.5750   -0.5008    4.5027 C   0  0  0  0  0  0  0  0  0  0  0  0
    6.1155   -0.7605    3.2494 C   0  0  0  0  0  0  0  0  0  0  0  0
    5.3227   -0.6892    2.1086 C   0  0  0  0  0  0  0  0  0  0  0  0
    3.9789   -0.3536   -0.2411 C   0  0  0  0  0  0  0  0  0  0  0  0
    4.0832   -1.3910   -0.8352 O   0  0  0  0  0  0  0  0  0  0  0  0
    4.6474    0.7582   -0.6814 N   0  0  0  0  0  0  0  0  0  0  0  0
    5.4925    0.6803   -1.8817 C   0  0  0  0  0  0  0  0  0  0  0  0
  1  2  1  0
  2  3  1  0
  2  4  1  0
  1  5  1  0
  5  6  1  0
  6  7  2  0
  6  8  1  0
  8  9  1  0
  9 10  1  0
 10 11  2  0
 11 12  1  0
 12 13  2  0
 13 14  1  0
 14 15  2  0
 15 10  1  0
  9 16  1  0
 16 17  2  0
 16 18  1  0
 18 19  1  0
M  END
$$$$
s_34____15258682____10809276
     RDKit          3D

 19 19  0  0  0  0  0  0  0  0999 V2000
    0.8390   -2.4312    6.7768 Br  0  0  0  0  0  0  0  0  0  0  0  0
    1.4931   -1.7993    5.0407 C   0  0  0  0  0  0  0  0  0  0  0  0
    1.1538   -2.4918    3.8829 C   0  0  0  0  0  0  0  0  0  0  0  0
    1.6210   -2.0385    2.6536 C   0  0  0  0  0  0  0  0  0  0  0  0
    2.4200   -0.9014    2.5954 C   0  0  0  0  0  0  0  0  0  0  0  0
    2.7555   -0.2135    3.7573 C   0  0  0  0  0  0  0  0  0  0  0  0
    2.2920   -0.6611    4.9902 C   0  0  0  0  0  0  0  0  0  0  0  0
    2.9267   -0.4113    1.2488 C   0  0  0  0  0  0  0  0  0  0  0  0
    2.4200    1.0000    1.0000 C   0  0  0  0  0  0  0  0  0  0  0  0
    1.0000    1.0000    1.0000 O   0  0  0  0  0  0  0  0  0  0  0  0
    0.2850    1.0000    2.2384 N   0  0  0  0  0  0  0  0  0  0  0  0
   -0.9650    1.0000    2.2384 C   0  0  0  0  0  0  0  0  0  0  0  0
   -1.7250    2.3164    2.2384 C   0  0  0  0  0  0  0  0  0  0  0  0
   -2.5989    2.3969    0.9973 C   0  0  0  0  0  0  0  0  0  0  0  0
   -3.3589    3.7132    0.9973 C   0  0  0  0  0  0  0  0  0  0  0  0
   -1.7250   -0.3164    2.2384 C   0  0  0  0  0  0  0  0  0  0  0  0
    4.4467   -0.4113    1.2488 C   0  0  0  0  0  0  0  0  0  0  0  0
    4.9200   -1.7297    1.4813 O   0  0  0  0  0  0  0  0  0  0  0  0
    6.3400   -1.7297    1.4813 C   0  0  0  0  0  0  0  0  0  0  0  0
  1  2  1  0
  2  3  2  0
  3  4  1  0
  4  5  2  0
  5  6  1  0
  6  7  2  0
  7  2  1  0
  5  8  1  0
  8  9  1  0
  9 10  1  0
 10 11  1  0
 11 12  2  0
 12 13  1  0
 13 14  1  0
 14 15  1  0
 12 16  1  0
  8 17  1  0
 17 18  1  0
 18 19  1  0
M  END
$$$$
s_276436a____16886450____17513464
     RDKit          3D

 23 23  0  0  0  0  0  0  0  0999 V2000
   -0.3687    0.5827   -1.4721 F   0  0  0  0  0  0  0  0  0  0  0  0
   -1.0139    1.6600   -1.0338 C   0  0  0  0  0  0  0  0  0  0  0  0
   -1.8979    1.3010   -0.1073 F   0  0  0  0  0  0  0  0  0  0  0  0
   -0.0175    2.6373   -0.4317 C   0  0  0  0  0  0  0  0  0  0  0  0
    0.2900    2.2298    1.0000 C   0  0  0  0  0  0  0  0  0  0  0  0
    1.0000    1.0000    1.0000 O   0  0  0  0  0  0  0  0  0  0  0  0
    2.3100    1.0000    1.0000 C   0  0  0  0  0  0  0  0  0  0  0  0
    2.9100    2.0392    1.0000 O   0  0  0  0  0  0  0  0  0  0  0  0
    3.0700   -0.3164    1.0000 C   0  0  0  0  0  0  0  0  0  0  0  0
    4.5152   -0.0477    1.0000 N   0  0  0  0  0  0  0  0  0  0  0  0
    5.2971   -0.5058    2.0275 C   0  0  0  0  0  0  0  0  0  0  0  0
    4.8022   -1.1263    2.9275 O   0  0  0  0  0  0  0  0  0  0  0  0
    6.7915   -0.2281    2.0275 C   0  0  0  0  0  0  0  0  0  0  0  0
    2.7028   -1.1134   -0.2411 C   0  0  0  0  0  0  0  0  0  0  0  0
    3.4628   -2.4298   -0.2411 C   0  0  0  0  0  0  0  0  0  0  0  0
    2.8968   -3.5469    0.3644 C   0  0  0  0  0  0  0  0  0  0  0  0
    3.5882   -4.7537    0.3662 C   0  0  0  0  0  0  0  0  0  0  0  0
    4.8387   -4.8280   -0.2391 C   0  0  0  0  0  0  0  0  0  0  0  0
    5.5134   -5.9972   -0.2393 O   0  0  0  0  0  0  0  0  0  0  0  0
    5.4095   -3.7138   -0.8457 C   0  0  0  0  0  0  0  0  0  0  0  0
    4.7135   -2.5097   -0.8449 C   0  0  0  0  0  0  0  0  0  0  0  0
   -0.6100    4.0370   -0.4439 C   0  0  0  0  0  0  0  0  0  0  0  0
   -1.7372    2.3243   -2.1939 C   0  0  0  0  0  0  0  0  0  0  0  0
  1  2  1  0
  2  3  1  0
  2  4  1  0
  4  5  1  0
  5  6  1  0
  6  7  1  0
  7  8  2  0
  7  9  1  0
  9 10  1  0
 10 11  1  0
 11 12  2  0
 11 13  1  0
  9 14  1  0
 14 15  1  0
 15 16  2  0
 16 17  1  0
 17 18  2  0
 18 19  1  0
 18 20  1  0
 20 21  2  0
 21 15  1  0
  4 22  1  0
  2 23  1  0
M  END
$$$$
s_22____7348398____1055140
     RDKit          3D

 18 18  0  0  0  0  0  0  0  0999 V2000
    3.1233   -0.7065    1.0000 S   0  0  0  0  0  0  0  0  0  0  0  0
    2.5200    1.0000    1.0000 C   0  0  0  0  0  0  0  0  0  0  0  0
    1.0000    1.0000    1.0000 C   0  0  0  0  0  0  0  0  0  0  0  0
    0.4000    1.0000   -0.0392 O   0  0  0  0  0  0  0  0  0  0  0  0
    0.3150    1.0000    2.1865 N   0  0  0  0  0  0  0  0  0  0  0  0
   -1.1550    1.0000    2.1865 C   0  0  0  0  0  0  0  0  0  0  0  0
   -1.6617    1.0000    3.6195 C   0  0  0  0  0  0  0  0  0  0  0  0
   -3.1811    1.0000    3.6195 C   0  0  0  0  0  0  0  0  0  0  0  0
   -3.8612   -0.2127    3.6195 C   0  0  0  0  0  0  0  0  0  0  0  0
   -5.2519   -0.2018    3.6202 C   0  0  0  0  0  0  0  0  0  0  0  0
   -5.9279   -1.3704    3.6207 O   0  0  0  0  0  0  0  0  0  0  0  0
   -5.9458    1.0039    3.6210 C   0  0  0  0  0  0  0  0  0  0  0  0
   -7.2964    0.9946    3.6223 O   0  0  0  0  0  0  0  0  0  0  0  0
   -5.2613    2.2159    3.6210 C   0  0  0  0  0  0  0  0  0  0  0  0
   -3.8693    2.2080    3.6204 C   0  0  0  0  0  0  0  0  0  0  0  0
    4.9032   -0.3775    1.0000 C   0  0  0  0  0  0  0  0  0  0  0  0
    5.6619   -1.6947    1.0000 C   0  0  0  0  0  0  0  0  0  0  0  0
    7.1566   -1.4184    1.0000 C   0  0  0  0  0  0  0  0  0  0  0  0
  1  2  1  0
  2  3  1  0
  3  4  2  0
  3  5  1  0
  5  6  1  0
  6  7  1  0
  7  8  1  0
  8  9  2  0
  9 10  1  0
 10 11  1  0
 10 12  2  0
 12 13  1  0
 12 14  1  0
 14 15  2  0
 15  8  1  0
  1 16  1  0
 16 17  1  0
 17 18  1  0
M  END
$$$$
s_22____16501874____548060
     RDKit          3D

 22 22  0  0  0  0  0  0  0  0999 V2000
    4.4994   -6.9623    1.1347 Cl  0  0  0  0  0  0  0  0  0  0  0  0
    3.9029   -5.3102    0.8474 C   0  0  0  0  0  0  0  0  0  0  0  0
    2.6876   -4.9093    1.3912 C   0  0  0  0  0  0  0  0  0  0  0  0
    2.2173   -3.6191    1.1685 C   0  0  0  0  0  0  0  0  0  0  0  0
    2.9765   -2.7432    0.3998 C   0  0  0  0  0  0  0  0  0  0  0  0
    4.1917   -3.1437   -0.1444 C   0  0  0  0  0  0  0  0  0  0  0  0
    4.6621   -4.4342    0.0783 C   0  0  0  0  0  0  0  0  0  0  0  0
    2.4700   -1.3325    0.1511 C   0  0  0  0  0  0  0  0  0  0  0  0
    2.9767   -0.4113    1.2488 C   0  0  0  0  0  0  0  0  0  0  0  0
    4.4967   -0.4113    1.2488 C   0  0  0  0  0  0  0  0  0  0  0  0
    5.0967   -0.7667    2.2254 O   0  0  0  0  0  0  0  0  0  0  0  0
    5.1517   -0.0233    0.1828 O   0  0  0  0  0  0  0  0  0  0  0  0
    6.5717   -0.0233    0.1828 C   0  0  0  0  0  0  0  0  0  0  0  0
    2.4700    1.0000    1.0000 C   0  0  0  0  0  0  0  0  0  0  0  0
    1.0000    1.0000    1.0000 N   0  0  0  0  0  0  0  0  0  0  0  0
    0.3150    1.0000    2.1865 C   0  0  0  0  0  0  0  0  0  0  0  0
    0.9150    1.0000    3.2257 O   0  0  0  0  0  0  0  0  0  0  0  0
   -1.2050    1.0000    2.1865 C   0  0  0  0  0  0  0  0  0  0  0  0
   -1.8083   -0.7065    2.1865 S   0  0  0  0  0  0  0  0  0  0  0  0
   -3.5882   -0.3775    2.1865 C   0  0  0  0  0  0  0  0  0  0  0  0
   -4.3469   -1.6947    2.1865 C   0  0  0  0  0  0  0  0  0  0  0  0
   -3.9562    0.4192    3.4275 C   0  0  0  0  0  0  0  0  0  0  0  0
  1  2  1  0
  2  3  2  0
  3  4  1  0
  4  5  2  0
  5  6  1  0
  6  7  2  0
  7  2  1  0
  5  8  1  0
  8  9  1  0
  9 10  1  0
 10 11  2  0
 10 12  1  0
 12 13  1  0
  9 14  1  0
 14 15  1  0
 15 16  1  0
 16 17  2  0
 16 18  1  0
 18 19  1  0
 19 20  1  0
 20 21  1  0
 20 22  1  0
M  END
$$$$
s_22____16639008____548072
     RDKit          3D

 20 20  0  0  0  0  0  0  0  0999 V2000
    0.6517    1.8583   -0.5550 S   0  0  0  0  0  0  0  0  0  0  0  0
    1.0000    1.0000    1.0000 C   0  0  0  0  0  0  0  0  0  0  0  0
    1.8776    1.8776    1.8776 C   0  0  0  0  0  0  0  0  0  0  0  0
    3.0725    1.7997    1.7997 O   0  0  0  0  0  0  0  0  0  0  0  0
    1.3043    2.7574    2.7574 N   0  0  0  0  0  0  0  0  0  0  0  0
   -0.1595    2.8528    2.8528 C   0  0  0  0  0  0  0  0  0  0  0  0
   -0.6411    2.0631    4.0587 C   0  0  0  0  0  0  0  0  0  0  0  0
   -0.7481    2.6971    5.2919 C   0  0  0  0  0  0  0  0  0  0  0  0
   -1.1885    1.9795    6.3993 C   0  0  0  0  0  0  0  0  0  0  0  0
   -1.5169    0.6351    6.2581 C   0  0  0  0  0  0  0  0  0  0  0  0
   -1.9396   -0.0571    7.3125 F   0  0  0  0  0  0  0  0  0  0  0  0
   -1.4108   -0.0040    5.0272 C   0  0  0  0  0  0  0  0  0  0  0  0
   -0.9702    0.7186    3.9235 C   0  0  0  0  0  0  0  0  0  0  0  0
    2.1530    3.6061    3.6061 C   0  0  0  0  0  0  0  0  0  0  0  0
    2.4456    4.9120    2.8853 C   0  0  0  0  0  0  0  0  0  0  0  0
    3.2654    5.7318    3.7052 O   0  0  0  0  0  0  0  0  0  0  0  0
   -0.3759    0.5981   -1.3500 C   0  0  0  0  0  0  0  0  0  0  0  0
   -0.8140    1.0914   -2.7194 C   0  0  0  0  0  0  0  0  0  0  0  0
   -1.6769    0.0332   -3.3870 C   0  0  0  0  0  0  0  0  0  0  0  0
   -2.1149    0.5265   -4.7564 C   0  0  0  0  0  0  0  0  0  0  0  0
  1  2  1  0
  2  3  1  0
  3  4  2  0
  3  5  1  0
  5  6  1  0
  6  7  1  0
  7  8  2  0
  8  9  1  0
  9 10  2  0
 10 11  1  0
 10 12  1  0
 12 13  2  0
 13  7  1  0
  5 14  1  0
 14 15  1  0
 15 16  1  0
  1 17  1  0
 17 18  1  0
 18 19  1  0
 19 20  1  0
M  END
$$$$
s_527a____9282696____217437
     RDKit          3D

 24 24  0  0  0  0  0  0  0  0999 V2000
    0.4000    1.0000   -0.0392 O   0  0  0  0  0  0  0  0  0  0  0  0
    1.0000    1.0000    1.0000 C   0  0  0  0  0  0  0  0  0  0  0  0
    0.3150    1.0000    2.1865 N   0  0  0  0  0  0  0  0  0  0  0  0
    0.9023    1.6365    3.3742 C   0  0  0  0  0  0  0  0  0  0  0  0
    1.0317    3.1321    3.1358 C   0  0  0  0  0  0  0  0  0  0  0  0
    0.0565    3.9287    3.4593 C   0  0  0  0  0  0  0  0  0  0  0  0
   -1.0073    0.3635    2.2717 C   0  0  0  0  0  0  0  0  0  0  0  0
   -1.0411   -0.5764    3.4659 C   0  0  0  0  0  0  0  0  0  0  0  0
   -2.0943   -1.5144    3.3003 O   0  0  0  0  0  0  0  0  0  0  0  0
   -2.1259   -2.3924    4.4159 C   0  0  0  0  0  0  0  0  0  0  0  0
    2.5200    1.0000    1.0000 C   0  0  0  0  0  0  0  0  0  0  0  0
    3.0267   -0.4331    1.0000 C   0  0  0  0  0  0  0  0  0  0  0  0
    3.4169   -0.8148    2.3649 N   0  0  0  0  0  0  0  0  0  0  0  0
    2.4971   -1.3822    3.2069 C   0  0  0  0  0  0  0  0  0  0  0  0
    1.5088   -1.8941    2.7586 O   0  0  0  0  0  0  0  0  0  0  0  0
    2.7286   -1.3632    4.7091 C   0  0  0  0  0  0  0  0  0  0  0  0
    4.2306   -0.5448    0.0788 C   0  0  0  0  0  0  0  0  0  0  0  0
    5.5065   -0.3357    0.5917 C   0  0  0  0  0  0  0  0  0  0  0  0
    6.6112   -0.4376   -0.2472 C   0  0  0  0  0  0  0  0  0  0  0  0
    6.4252   -0.7485   -1.5906 C   0  0  0  0  0  0  0  0  0  0  0  0
    7.5500   -0.8532   -2.4509 O   0  0  0  0  0  0  0  0  0  0  0  0
    7.3673   -1.1702   -3.8230 C   0  0  0  0  0  0  0  0  0  0  0  0
    5.1513   -0.9583   -2.1087 C   0  0  0  0  0  0  0  0  0  0  0  0
    4.0503   -0.8555   -1.2651 C   0  0  0  0  0  0  0  0  0  0  0  0
  1  2  2  0
  2  3  1  0
  3  4  1  0
  4  5  1  0
  5  6  2  0
  3  7  1  0
  7  8  1  0
  8  9  1  0
  9 10  1  0
  2 11  1  0
 11 12  1  0
 12 13  1  0
 13 14  1  0
 14 15  2  0
 14 16  1  0
 12 17  1  0
 17 18  2  0
 18 19  1  0
 19 20  2  0
 20 21  1  0
 21 22  1  0
 20 23  1  0
 23 24  2  0
 24 17  1  0
M  END
$$$$
s_22____16918398____107332
     RDKit          3D

 22 23  0  0  0  0  0  0  0  0999 V2000
    5.8957   -1.5801    4.8239 Cl  0  0  0  0  0  0  0  0  0  0  0  0
    4.7153   -0.5657    3.9604 C   0  0  0  0  0  0  0  0  0  0  0  0
    3.3544   -0.8092    4.1090 C   0  0  0  0  0  0  0  0  0  0  0  0
    2.4285   -0.0192    3.4353 C   0  0  0  0  0  0  0  0  0  0  0  0
    2.8820    1.0104    2.6176 C   0  0  0  0  0  0  0  0  0  0  0  0
    4.2428    1.2540    2.4685 C   0  0  0  0  0  0  0  0  0  0  0  0
    5.1690    0.4639    3.1423 C   0  0  0  0  0  0  0  0  0  0  0  0
    1.8776    1.8776    1.8776 C   0  0  0  0  0  0  0  0  0  0  0  0
    1.0385    2.5935    2.8494 N   0  0  0  0  0  0  0  0  0  0  0  0
    1.0211    3.9634    2.8612 C   0  0  0  0  0  0  0  0  0  0  0  0
    1.6907    4.5788    2.0783 O   0  0  0  0  0  0  0  0  0  0  0  0
    0.1535    4.7037    3.8661 C   0  0  0  0  0  0  0  0  0  0  0  0
    1.0000    1.0000    1.0000 C   0  0  0  0  0  0  0  0  0  0  0  0
    1.8776    0.1224    0.1224 C   0  0  0  0  0  0  0  0  0  0  0  0
    2.9588    0.5109   -0.2240 O   0  0  0  0  0  0  0  0  0  0  0  0
    1.4236   -1.1413   -0.2824 N   0  0  0  0  0  0  0  0  0  0  0  0
    1.9585   -2.2381   -1.0983 C   0  0  0  0  0  0  0  0  0  0  0  0
    1.0893   -3.1473   -0.2571 C   0  0  0  0  0  0  0  0  0  0  0  0
    0.4163   -4.2480   -1.0593 C   0  0  0  0  0  0  0  0  0  0  0  0
   -0.3593   -3.7050   -1.9933 F   0  0  0  0  0  0  0  0  0  0  0  0
    0.2140   -1.9286   -0.0827 C   0  0  0  0  0  0  0  0  0  0  0  0
    1.7199   -3.6927    1.0104 C   0  0  0  0  0  0  0  0  0  0  0  0
  1  2  1  0
  2  3  2  0
  3  4  1  0
  4  5  2  0
  5  6  1  0
  6  7  2  0
  7  2  1  0
  5  8  1  0
  8  9  1  0
  9 10  1  0
 10 11  2  0
 10 12  1  0
  8 13  1  0
 13 14  1  0
 14 15  2  0
 14 16  1  0
 16 17  1  0
 17 18  1  0
 18 19  1  0
 19 20  1  0
 18 21  1  0
 21 16  1  0
 18 22  1  0
M  END
$$$$
s_22____13949588____17513450
     RDKit          3D

 23 23  0  0  0  0  0  0  0  0999 V2000
    0.9150    1.0000    3.2257 O   0  0  0  0  0  0  0  0  0  0  0  0
    0.3150    1.0000    2.1865 C   0  0  0  0  0  0  0  0  0  0  0  0
    1.0000    1.0000    1.0000 N   0  0  0  0  0  0  0  0  0  0  0  0
    2.4700    1.0000    1.0000 C   0  0  0  0  0  0  0  0  0  0  0  0
    2.9767    1.0000   -0.4331 C   0  0  0  0  0  0  0  0  0  0  0  0
    4.4967    1.0000   -0.4331 C   0  0  0  0  0  0  0  0  0  0  0  0
    5.0033    1.0000   -1.8661 C   0  0  0  0  0  0  0  0  0  0  0  0
    5.3833    1.0000   -2.9409 N   0  0  0  0  0  0  0  0  0  0  0  0
    5.0033    2.2411    0.2835 C   0  0  0  0  0  0  0  0  0  0  0  0
    5.0033   -0.2411    0.2835 C   0  0  0  0  0  0  0  0  0  0  0  0
   -1.2050    1.0000    2.1865 C   0  0  0  0  0  0  0  0  0  0  0  0
   -1.6950    1.0000    3.5724 N   0  0  0  0  0  0  0  0  0  0  0  0
   -2.4826    2.0275    4.0205 C   0  0  0  0  0  0  0  0  0  0  0  0
   -2.7725    2.9275    3.2816 O   0  0  0  0  0  0  0  0  0  0  0  0
   -2.9893    2.0275    5.4535 C   0  0  0  0  0  0  0  0  0  0  0  0
   -1.7117   -0.2411    1.4699 C   0  0  0  0  0  0  0  0  0  0  0  0
   -3.2317   -0.2411    1.4699 C   0  0  0  0  0  0  0  0  0  0  0  0
   -3.9161    0.3644    0.4212 C   0  0  0  0  0  0  0  0  0  0  0  0
   -5.3069    0.3662    0.4166 C   0  0  0  0  0  0  0  0  0  0  0  0
   -5.9966   -0.2391    1.4624 C   0  0  0  0  0  0  0  0  0  0  0  0
   -7.3464   -0.2393    1.4621 O   0  0  0  0  0  0  0  0  0  0  0  0
   -5.3170   -0.8457    2.5138 C   0  0  0  0  0  0  0  0  0  0  0  0
   -3.9262   -0.8449    2.5131 C   0  0  0  0  0  0  0  0  0  0  0  0
  1  2  2  0
  2  3  1  0
  3  4  1  0
  4  5  1  0
  5  6  1  0
  6  7  1  0
  7  8  3  0
  6  9  1  0
  6 10  1  0
  2 11  1  0
 11 12  1  0
 12 13  1  0
 13 14  2  0
 13 15  1  0
 11 16  1  0
 16 17  1  0
 17 18  2  0
 18 19  1  0
 19 20  2  0
 20 21  1  0
 20 22  1  0
 22 23  2  0
 23 17  1  0
M  END
$$$$
s_22____11649876____1322986
     RDKit          3D

 22 22  0  0  0  0  0  0  0  0999 V2000
    0.6517    1.8583   -0.5550 S   0  0  0  0  0  0  0  0  0  0  0  0
    1.0000    1.0000    1.0000 C   0  0  0  0  0  0  0  0  0  0  0  0
    1.8776    1.8776    1.8776 C   0  0  0  0  0  0  0  0  0  0  0  0
    3.0725    1.7997    1.7997 O   0  0  0  0  0  0  0  0  0  0  0  0
    1.3043    2.7574    2.7574 N   0  0  0  0  0  0  0  0  0  0  0  0
    2.1530    3.6061    3.6061 C   0  0  0  0  0  0  0  0  0  0  0  0
    1.8605    5.0688    3.3136 C   0  0  0  0  0  0  0  0  0  0  0  0
    2.7591    5.8628    3.2675 O   0  0  0  0  0  0  0  0  0  0  0  0
    0.6275    5.4625    3.1119 O   0  0  0  0  0  0  0  0  0  0  0  0
    0.3542    6.8289    2.8386 C   0  0  0  0  0  0  0  0  0  0  0  0
    1.8605    3.3136    5.0688 C   0  0  0  0  0  0  0  0  0  0  0  0
    2.7383    4.1914    5.9465 C   0  0  0  0  0  0  0  0  0  0  0  0
    2.2816    5.4436    6.3443 C   0  0  0  0  0  0  0  0  0  0  0  0
    3.0883    6.2439    7.1468 C   0  0  0  0  0  0  0  0  0  0  0  0
    4.3407    5.7897    7.5465 C   0  0  0  0  0  0  0  0  0  0  0  0
    4.7863    4.5368    7.1434 C   0  0  0  0  0  0  0  0  0  0  0  0
    3.9893    3.7274    6.3405 C   0  0  0  0  0  0  0  0  0  0  0  0
   -0.3759    0.5981   -1.3500 C   0  0  0  0  0  0  0  0  0  0  0  0
   -0.8140    1.0914   -2.7194 C   0  0  0  0  0  0  0  0  0  0  0  0
   -1.6769    0.0332   -3.3870 C   0  0  0  0  0  0  0  0  0  0  0  0
   -2.1149    0.5265   -4.7564 C   0  0  0  0  0  0  0  0  0  0  0  0
   -0.8760   -1.2493   -3.5428 C   0  0  0  0  0  0  0  0  0  0  0  0
  1  2  1  0
  2  3  1  0
  3  4  2  0
  3  5  1  0
  5  6  1  0
  6  7  1  0
  7  8  2  0
  7  9  1  0
  9 10  1  0
  6 11  1  0
 11 12  1  0
 12 13  2  0
 13 14  1  0
 14 15  2  0
 15 16  1  0
 16 17  2  0
 17 12  1  0
  1 18  1  0
 18 19  1  0
 19 20  1  0
 20 21  1  0
 20 22  1  0
M  END
$$$$
EN300-09603
     RDKit          3D

 16 16  0  0  0  0  0  0  0  0999 V2000
   -1.7983   -0.6782    2.1865 Cl  0  0  0  0  0  0  0  0  0  0  0  0
   -1.2050    1.0000    2.1865 C   0  0  0  0  0  0  0  0  0  0  0  0
    0.3150    1.0000    2.1865 C   0  0  0  0  0  0  0  0  0  0  0  0
    0.9150    1.0000    3.2257 O   0  0  0  0  0  0  0  0  0  0  0  0
    1.0000    1.0000    1.0000 N   0  0  0  0  0  0  0  0  0  0  0  0
    2.4700    1.0000    1.0000 C   0  0  0  0  0  0  0  0  0  0  0  0
    2.9767    2.2411    0.2835 C   0  0  0  0  0  0  0  0  0  0  0  0
    3.9272    2.8352    0.7118 O   0  0  0  0  0  0  0  0  0  0  0  0
    2.2793    2.7296   -0.9756 C   0  0  0  0  0  0  0  0  0  0  0  0
    2.9767   -0.2411    0.2835 C   0  0  0  0  0  0  0  0  0  0  0  0
    4.4970   -0.2411    0.2835 C   0  0  0  0  0  0  0  0  0  0  0  0
    5.1860   -0.8453    1.3299 C   0  0  0  0  0  0  0  0  0  0  0  0
    6.5771   -0.8423    1.3265 C   0  0  0  0  0  0  0  0  0  0  0  0
    7.2687   -0.2393    0.2811 C   0  0  0  0  0  0  0  0  0  0  0  0
    6.5699    0.3607   -0.7592 C   0  0  0  0  0  0  0  0  0  0  0  0
    5.1789    0.3650   -0.7670 C   0  0  0  0  0  0  0  0  0  0  0  0
  1  2  1  0
  2  3  1  0
  3  4  2  0
  3  5  1  0
  5  6  1  0
  6  7  1  0
  7  8  2  0
  7  9  1  0
  6 10  1  0
 10 11  1  0
 11 12  2  0
 12 13  1  0
 13 14  2  0
 14 15  1  0
 15 16  2  0
 16 11  1  0
M  END
$$$$
s_22____17318954____14651684
     RDKit          3D

 23 23  0  0  0  0  0  0  0  0999 V2000
    3.1924   -1.5045    4.4279 F   0  0  0  0  0  0  0  0  0  0  0  0
    2.3114   -2.0530    3.5962 C   0  0  0  0  0  0  0  0  0  0  0  0
    1.0501   -1.4825    3.4593 C   0  0  0  0  0  0  0  0  0  0  0  0
    0.1128   -2.0387    2.5952 C   0  0  0  0  0  0  0  0  0  0  0  0
    0.4508   -3.1751    1.8665 C   0  0  0  0  0  0  0  0  0  0  0  0
    1.7133   -3.7412    2.0074 C   0  0  0  0  0  0  0  0  0  0  0  0
    2.0345   -4.8267    1.3107 F   0  0  0  0  0  0  0  0  0  0  0  0
    2.6535   -3.1890    2.8704 C   0  0  0  0  0  0  0  0  0  0  0  0
    0.6828   -0.2411    4.2566 C   0  0  0  0  0  0  0  0  0  0  0  0
    1.0500    1.0000    3.4595 C   0  0  0  0  0  0  0  0  0  0  0  0
    0.3150    1.0000    2.1865 N   0  0  0  0  0  0  0  0  0  0  0  0
    1.0000    1.0000    1.0000 C   0  0  0  0  0  0  0  0  0  0  0  0
    0.4000    1.0000   -0.0392 O   0  0  0  0  0  0  0  0  0  0  0  0
    2.5200    1.0000    1.0000 C   0  0  0  0  0  0  0  0  0  0  0  0
    3.0267    1.0000   -0.4331 C   0  0  0  0  0  0  0  0  0  0  0  0
    2.5200    2.2411   -1.1496 C   0  0  0  0  0  0  0  0  0  0  0  0
    3.0267    3.4821   -0.4331 C   0  0  0  0  0  0  0  0  0  0  0  0
    2.1819    4.3379    0.0610 C   0  0  0  0  0  0  0  0  0  0  0  0
    4.5467    1.0000   -0.4331 C   0  0  0  0  0  0  0  0  0  0  0  0
    2.5200   -0.2411   -1.1496 C   0  0  0  0  0  0  0  0  0  0  0  0
    0.6828    2.2411    4.2566 C   0  0  0  0  0  0  0  0  0  0  0  0
    1.3928    2.2411    5.4863 O   0  0  0  0  0  0  0  0  0  0  0  0
    1.0498    3.4005    6.2309 C   0  0  0  0  0  0  0  0  0  0  0  0
  1  2  1  0
  2  3  2  0
  3  4  1  0
  4  5  2  0
  5  6  1  0
  6  7  1  0
  6  8  2  0
  8  2  1  0
  3  9  1  0
  9 10  1  0
 10 11  1  0
 11 12  1  0
 12 13  2  0
 12 14  1  0
 14 15  1  0
 15 16  1  0
 16 17  1  0
 17 18  2  0
 15 19  1  0
 15 20  1  0
 10 21  1  0
 21 22  1  0
 22 23  1  0
M  END
$$$$
s_527a____10430200____210093
     RDKit          3D

 22 22  0  0  0  0  0  0  0  0999 V2000
    0.4000    1.0000   -0.0392 O   0  0  0  0  0  0  0  0  0  0  0  0
    1.0000    1.0000    1.0000 C   0  0  0  0  0  0  0  0  0  0  0  0
    0.3150    1.0000    2.1865 N   0  0  0  0  0  0  0  0  0  0  0  0
    1.0500    1.0000    3.4595 C   0  0  0  0  0  0  0  0  0  0  0  0
    1.3033    2.4331    3.8983 C   0  0  0  0  0  0  0  0  0  0  0  0
    0.8327    2.8583    5.0331 C   0  0  0  0  0  0  0  0  0  0  0  0
   -1.1550    1.0000    2.1865 C   0  0  0  0  0  0  0  0  0  0  0  0
   -1.6617   -0.4331    2.1865 C   0  0  0  0  0  0  0  0  0  0  0  0
   -3.1817   -0.4331    2.1865 C   0  0  0  0  0  0  0  0  0  0  0  0
   -4.3217   -0.4331    2.1865 N   0  0  0  0  0  0  0  0  0  0  0  0
    2.5200    1.0000    1.0000 C   0  0  0  0  0  0  0  0  0  0  0  0
    3.0267    1.2488   -0.4113 C   0  0  0  0  0  0  0  0  0  0  0  0
    4.3972    1.7773   -0.3538 N   0  0  0  0  0  0  0  0  0  0  0  0
    4.6793    3.0088   -0.8837 C   0  0  0  0  0  0  0  0  0  0  0  0
    3.8076    3.6561   -1.3947 O   0  0  0  0  0  0  0  0  0  0  0  0
    6.0965    3.5551   -0.8243 C   0  0  0  0  0  0  0  0  0  0  0  0
    3.0192   -0.0569   -1.1900 C   0  0  0  0  0  0  0  0  0  0  0  0
    3.7378   -1.1480   -0.7125 C   0  0  0  0  0  0  0  0  0  0  0  0
    3.7289   -2.3406   -1.4286 C   0  0  0  0  0  0  0  0  0  0  0  0
    3.0041   -2.4361   -2.6119 C   0  0  0  0  0  0  0  0  0  0  0  0
    2.2896   -1.3397   -3.0790 C   0  0  0  0  0  0  0  0  0  0  0  0
    2.2910   -0.1415   -2.3725 C   0  0  0  0  0  0  0  0  0  0  0  0
  1  2  2  0
  2  3  1  0
  3  4  1  0
  4  5  1  0
  5  6  2  0
  3  7  1  0
  7  8  1  0
  8  9  1  0
  9 10  3  0
  2 11  1  0
 11 12  1  0
 12 13  1  0
 13 14  1  0
 14 15  2  0
 14 16  1  0
 12 17  1  0
 17 18  2  0
 18 19  1  0
 19 20  2  0
 20 21  1  0
 21 22  2  0
 22 17  1  0
M  END
$$$$
s_22____14718616____107332
     RDKit          3D

 22 22  0  0  0  0  0  0  0  0999 V2000
   -0.6757   -2.9595    7.6834 Cl  0  0  0  0  0  0  0  0  0  0  0  0
   -0.9896   -1.6998    6.4659 C   0  0  0  0  0  0  0  0  0  0  0  0
   -1.7244   -2.0071    5.3262 C   0  0  0  0  0  0  0  0  0  0  0  0
   -1.9714   -1.0257    4.3716 C   0  0  0  0  0  0  0  0  0  0  0  0
   -1.4761    0.2581    4.5742 C   0  0  0  0  0  0  0  0  0  0  0  0
   -0.7411    0.5659    5.7136 C   0  0  0  0  0  0  0  0  0  0  0  0
   -0.4940   -0.4158    6.6683 C   0  0  0  0  0  0  0  0  0  0  0  0
   -1.7407    1.3359    3.5365 C   0  0  0  0  0  0  0  0  0  0  0  0
   -3.1881    1.5698    3.4309 N   0  0  0  0  0  0  0  0  0  0  0  0
   -3.7027    2.8110    3.6981 C   0  0  0  0  0  0  0  0  0  0  0  0
   -2.9719    3.7073    4.0182 O   0  0  0  0  0  0  0  0  0  0  0  0
   -5.1994    3.0528    3.5890 C   0  0  0  0  0  0  0  0  0  0  0  0
   -1.2007    0.8853    2.1890 C   0  0  0  0  0  0  0  0  0  0  0  0
    0.3150    1.0000    2.1865 C   0  0  0  0  0  0  0  0  0  0  0  0
    0.9116    1.0906    3.2237 O   0  0  0  0  0  0  0  0  0  0  0  0
    1.0000    1.0000    1.0000 N   0  0  0  0  0  0  0  0  0  0  0  0
    2.4700    1.0000    1.0000 C   0  0  0  0  0  0  0  0  0  0  0  0
    2.9767   -0.4113    1.2488 C   0  0  0  0  0  0  0  0  0  0  0  0
    3.7241   -0.9993    0.3625 C   0  0  0  0  0  0  0  0  0  0  0  0
    4.0913   -0.2756   -0.9227 C   0  0  0  0  0  0  0  0  0  0  0  0
    5.6027   -0.1450   -1.0165 C   0  0  0  0  0  0  0  0  0  0  0  0
    5.9699    0.5788   -2.3017 C   0  0  0  0  0  0  0  0  0  0  0  0
  1  2  1  0
  2  3  2  0
  3  4  1  0
  4  5  2  0
  5  6  1  0
  6  7  2  0
  7  2  1  0
  5  8  1  0
  8  9  1  0
  9 10  1  0
 10 11  2  0
 10 12  1  0
  8 13  1  0
 13 14  1  0
 14 15  2  0
 14 16  1  0
 16 17  1  0
 17 18  1  0
 18 19  2  0
 19 20  1  0
 20 21  1  0
 21 22  1  0
M  END
$$$$
s_276436a____14085696____14093154
     RDKit          3D

 21 21  0  0  0  0  0  0  0  0999 V2000
    0.4000   -0.0392    1.0000 O   0  0  0  0  0  0  0  0  0  0  0  0
    1.0000    1.0000    1.0000 C   0  0  0  0  0  0  0  0  0  0  0  0
    2.3100    1.0000    1.0000 O   0  0  0  0  0  0  0  0  0  0  0  0
    3.0200   -0.2298    1.0000 C   0  0  0  0  0  0  0  0  0  0  0  0
    3.2733   -0.6685   -0.4331 C   0  0  0  0  0  0  0  0  0  0  0  0
    4.0678    0.3559   -1.1260 N   0  0  0  0  0  0  0  0  0  0  0  0
    3.5651    0.9752   -2.2399 C   0  0  0  0  0  0  0  0  0  0  0  0
    2.4763    0.6813   -2.6499 O   0  0  0  0  0  0  0  0  0  0  0  0
    4.3866    2.0345   -2.9565 C   0  0  0  0  0  0  0  0  0  0  0  0
    4.0335   -1.9852   -0.4331 C   0  0  0  0  0  0  0  0  0  0  0  0
    3.3474   -3.1769   -0.6429 C   0  0  0  0  0  0  0  0  0  0  0  0
    4.0467   -4.3795   -0.6413 C   0  0  0  0  0  0  0  0  0  0  0  0
    5.4218   -4.3842   -0.4322 C   0  0  0  0  0  0  0  0  0  0  0  0
    6.0967   -3.1876   -0.2242 C   0  0  0  0  0  0  0  0  0  0  0  0
    5.4088   -1.9786   -0.2228 C   0  0  0  0  0  0  0  0  0  0  0  0
    0.2400    2.3164    1.0000 C   0  0  0  0  0  0  0  0  0  0  0  0
    0.0843    2.9770    2.1087 C   0  0  0  0  0  0  0  0  0  0  0  0
   -0.6757    4.2934    2.1087 C   0  0  0  0  0  0  0  0  0  0  0  0
   -2.1512    4.0265    2.3576 C   0  0  0  0  0  0  0  0  0  0  0  0
   -2.9112    5.3429    2.3576 C   0  0  0  0  0  0  0  0  0  0  0  0
    0.6623    2.4331    3.4051 C   0  0  0  0  0  0  0  0  0  0  0  0
  1  2  2  0
  2  3  1  0
  3  4  1  0
  4  5  1  0
  5  6  1  0
  6  7  1  0
  7  8  2  0
  7  9  1  0
  5 10  1  0
 10 11  2  0
 11 12  1  0
 12 13  2  0
 13 14  1  0
 14 15  2  0
 15 10  1  0
  2 16  1  0
 16 17  2  0
 17 18  1  0
 18 19  1  0
 19 20  1  0
 17 21  1  0
M  END
$$$$
s_22____12210646____16717358
     RDKit          3D

 27 27  0  0  0  0  0  0  0  0999 V2000
    3.0725    1.7997    1.7997 O   0  0  0  0  0  0  0  0  0  0  0  0
    1.8776    1.8776    1.8776 C   0  0  0  0  0  0  0  0  0  0  0  0
    1.3043    2.7574    2.7574 N   0  0  0  0  0  0  0  0  0  0  0  0
    2.1530    3.6061    3.6061 C   0  0  0  0  0  0  0  0  0  0  0  0
    2.4456    4.9120    2.8853 C   0  0  0  0  0  0  0  0  0  0  0  0
    3.3231    5.7896    3.7629 C   0  0  0  0  0  0  0  0  0  0  0  0
    3.6156    7.0954    3.0421 C   0  0  0  0  0  0  0  0  0  0  0  0
    2.8215    8.1135    3.1935 C   0  0  0  0  0  0  0  0  0  0  0  0
    2.6023    6.0821    5.0688 C   0  0  0  0  0  0  0  0  0  0  0  0
    4.6290    5.0688    4.0554 C   0  0  0  0  0  0  0  0  0  0  0  0
    1.0000    1.0000    1.0000 C   0  0  0  0  0  0  0  0  0  0  0  0
    0.7171    1.6971   -0.2629 N   0  0  0  0  0  0  0  0  0  0  0  0
    1.5540    1.5376   -1.3358 C   0  0  0  0  0  0  0  0  0  0  0  0
    2.5180    0.8288   -1.2446 O   0  0  0  0  0  0  0  0  0  0  0  0
    1.2615    2.2584   -2.6416 C   0  0  0  0  0  0  0  0  0  0  0  0
    1.9216    3.5718   -2.6349 N   0  0  0  0  0  0  0  0  0  0  0  0
    3.1979    3.6995   -3.1161 C   0  0  0  0  0  0  0  0  0  0  0  0
    3.7770    2.7391   -3.5431 O   0  0  0  0  0  0  0  0  0  0  0  0
    3.8805    5.0576   -3.1091 C   0  0  0  0  0  0  0  0  0  0  0  0
   -0.3059    0.7075    1.7208 C   0  0  0  0  0  0  0  0  0  0  0  0
   -1.1835   -0.1701    0.8432 C   0  0  0  0  0  0  0  0  0  0  0  0
   -1.0842   -1.5540    0.9425 C   0  0  0  0  0  0  0  0  0  0  0  0
   -1.8857   -2.3610    0.1420 C   0  0  0  0  0  0  0  0  0  0  0  0
   -2.7781   -1.7726   -0.7486 C   0  0  0  0  0  0  0  0  0  0  0  0
   -3.5982   -2.5925   -1.5681 O   0  0  0  0  0  0  0  0  0  0  0  0
   -2.8811   -0.3891   -0.8520 C   0  0  0  0  0  0  0  0  0  0  0  0
   -2.0774    0.4131   -0.0489 C   0  0  0  0  0  0  0  0  0  0  0  0
  1  2  2  0
  2  3  1  0
  3  4  1  0
  4  5  1  0
  5  6  1  0
  6  7  1  0
  7  8  2  0
  6  9  1  0
  6 10  1  0
  2 11  1  0
 11 12  1  0
 12 13  1  0
 13 14  2  0
 13 15  1  0
 15 16  1  0
 16 17  1  0
 17 18  2  0
 17 19  1  0
 11 20  1  0
 20 21  1  0
 21 22  2  0
 22 23  1  0
 23 24  2  0
 24 25  1  0
 24 26  1  0
 26 27  2  0
 27 21  1  0
M  END
$$$$
s_276436a____15413918____16717372
     RDKit          3D

 26 26  0  0  0  0  0  0  0  0999 V2000
   -0.3868    1.6571   -0.7943 O   0  0  0  0  0  0  0  0  0  0  0  0
    0.7075    1.7208   -0.3059 C   0  0  0  0  0  0  0  0  0  0  0  0
    1.6499    2.4116   -0.8981 O   0  0  0  0  0  0  0  0  0  0  0  0
    1.3766    3.0850   -2.1180 C   0  0  0  0  0  0  0  0  0  0  0  0
    2.2960    2.5550   -3.2063 C   0  0  0  0  0  0  0  0  0  0  0  0
    1.9260    1.5433   -3.9340 C   0  0  0  0  0  0  0  0  0  0  0  0
    1.6119    4.5758   -1.9376 C   0  0  0  0  0  0  0  0  0  0  0  0
    1.3194    5.2966   -3.2434 C   0  0  0  0  0  0  0  0  0  0  0  0
    0.6926    5.1058   -0.8493 C   0  0  0  0  0  0  0  0  0  0  0  0
    1.0000    1.0000    1.0000 C   0  0  0  0  0  0  0  0  0  0  0  0
    1.8487    1.8487    1.8487 N   0  0  0  0  0  0  0  0  0  0  0  0
    3.0831    1.4052    2.2442 C   0  0  0  0  0  0  0  0  0  0  0  0
    3.4716    0.3240    1.8978 O   0  0  0  0  0  0  0  0  0  0  0  0
    3.9607    2.2828    3.1218 C   0  0  0  0  0  0  0  0  0  0  0  0
    5.2236    1.5857    3.4047 N   0  0  0  0  0  0  0  0  0  0  0  0
    6.2255    1.5772    2.4703 C   0  0  0  0  0  0  0  0  0  0  0  0
    6.0722    2.1388    1.4210 O   0  0  0  0  0  0  0  0  0  0  0  0
    7.5314    0.8564    2.7629 C   0  0  0  0  0  0  0  0  0  0  0  0
   -0.3059    0.7075    1.7208 C   0  0  0  0  0  0  0  0  0  0  0  0
   -0.0133   -0.0134    3.0267 C   0  0  0  0  0  0  0  0  0  0  0  0
    0.1949    0.7274    4.1855 C   0  0  0  0  0  0  0  0  0  0  0  0
    0.4621    0.0721    5.3829 C   0  0  0  0  0  0  0  0  0  0  0  0
    0.5173   -1.3180    5.4060 C   0  0  0  0  0  0  0  0  0  0  0  0
    0.7767   -1.9580    6.5658 O   0  0  0  0  0  0  0  0  0  0  0  0
    0.3102   -2.0634    4.2499 C   0  0  0  0  0  0  0  0  0  0  0  0
    0.0429   -1.4030    3.0554 C   0  0  0  0  0  0  0  0  0  0  0  0
  1  2  2  0
  2  3  1  0
  3  4  1  0
  4  5  1  0
  5  6  2  0
  4  7  1  0
  7  8  1  0
  7  9  1  0
  2 10  1  0
 10 11  1  0
 11 12  1  0
 12 13  2  0
 12 14  1  0
 14 15  1  0
 15 16  1  0
 16 17  2  0
 16 18  1  0
 10 19  1  0
 19 20  1  0
 20 21  2  0
 21 22  1  0
 22 23  2  0
 23 24  1  0
 23 25  1  0
 25 26  2  0
 26 20  1  0
M  END
$$$$
s_22____15151066____8593028
     RDKit          3D

 22 22  0  0  0  0  0  0  0  0999 V2000
   -1.8583    1.9240    3.7868 Br  0  0  0  0  0  0  0  0  0  0  0  0
   -1.2050    1.0000    2.1865 C   0  0  0  0  0  0  0  0  0  0  0  0
    0.3150    1.0000    2.1865 C   0  0  0  0  0  0  0  0  0  0  0  0
    0.9150    1.0000    3.2257 O   0  0  0  0  0  0  0  0  0  0  0  0
    1.0000    1.0000    1.0000 N   0  0  0  0  0  0  0  0  0  0  0  0
    2.4700    1.0000    1.0000 C   0  0  0  0  0  0  0  0  0  0  0  0
    2.9767    1.7165   -0.2411 C   0  0  0  0  0  0  0  0  0  0  0  0
    3.1767    1.0994   -1.2506 O   0  0  0  0  0  0  0  0  0  0  0  0
    3.1950    3.0078   -0.2086 O   0  0  0  0  0  0  0  0  0  0  0  0
    3.6683    3.6772   -1.3681 C   0  0  0  0  0  0  0  0  0  0  0  0
    2.9767   -0.4331    1.0000 C   0  0  0  0  0  0  0  0  0  0  0  0
    4.4501   -0.4493    1.3708 C   0  0  0  0  0  0  0  0  0  0  0  0
    4.8250   -0.0898    2.6612 C   0  0  0  0  0  0  0  0  0  0  0  0
    6.1738   -0.1061    2.9987 C   0  0  0  0  0  0  0  0  0  0  0  0
    6.5540    0.2350    4.2263 F   0  0  0  0  0  0  0  0  0  0  0  0
    7.1328   -0.4756    2.0611 C   0  0  0  0  0  0  0  0  0  0  0  0
    6.7453   -0.8321    0.7730 C   0  0  0  0  0  0  0  0  0  0  0  0
    5.3989   -0.8208    0.4235 C   0  0  0  0  0  0  0  0  0  0  0  0
   -1.7117   -0.4331    2.1865 C   0  0  0  0  0  0  0  0  0  0  0  0
   -3.2317   -0.4331    2.1865 C   0  0  0  0  0  0  0  0  0  0  0  0
   -1.2050   -1.1496    0.9454 C   0  0  0  0  0  0  0  0  0  0  0  0
   -1.2050   -1.1496    3.4275 C   0  0  0  0  0  0  0  0  0  0  0  0
  1  2  1  0
  2  3  1  0
  3  4  2  0
  3  5  1  0
  5  6  1  0
  6  7  1  0
  7  8  2  0
  7  9  1  0
  9 10  1  0
  6 11  1  0
 11 12  1  0
 12 13  2  0
 13 14  1  0
 14 15  1  0
 14 16  2  0
 16 17  1  0
 17 18  2  0
 18 12  1  0
  2 19  1  0
 19 20  1  0
 19 21  1  0
 19 22  1  0
M  END
$$$$
s_270062____14591256____15585492
     RDKit          3D

 17 17  0  0  0  0  0  0  0  0999 V2000
    1.8978    1.6760   -1.4716 O   0  0  0  0  0  0  0  0  0  0  0  0
    2.2442    0.5948   -1.0831 C   0  0  0  0  0  0  0  0  0  0  0  0
    1.8487    0.1513    0.1513 N   0  0  0  0  0  0  0  0  0  0  0  0
    2.2731   -1.1732    0.6271 C   0  0  0  0  0  0  0  0  0  0  0  0
    1.1430   -2.1691    0.4275 C   0  0  0  0  0  0  0  0  0  0  0  0
    1.0677   -2.8730   -0.7700 C   0  0  0  0  0  0  0  0  0  0  0  0
    0.0334   -3.7845   -0.9504 C   0  0  0  0  0  0  0  0  0  0  0  0
   -0.0591   -4.4773   -2.1050 O   0  0  0  0  0  0  0  0  0  0  0  0
   -0.9113   -3.9889    0.0501 C   0  0  0  0  0  0  0  0  0  0  0  0
   -0.8261   -3.2779    1.2432 C   0  0  0  0  0  0  0  0  0  0  0  0
    0.2048   -2.3639    1.4361 C   0  0  0  0  0  0  0  0  0  0  0  0
    1.0000    1.0000    1.0000 C   0  0  0  0  0  0  0  0  0  0  0  0
    1.8776    1.8776    1.8776 C   0  0  0  0  0  0  0  0  0  0  0  0
    1.0577    2.6974    2.6974 O   0  0  0  0  0  0  0  0  0  0  0  0
    1.8776    3.5172    3.5172 C   0  0  0  0  0  0  0  0  0  0  0  0
    1.0000    4.3948    4.3948 C   0  0  0  0  0  0  0  0  0  0  0  0
    3.1218   -0.2828   -1.9607 C   0  0  0  0  0  0  0  0  0  0  0  0
  1  2  2  0
  2  3  1  0
  3  4  1  0
  4  5  1  0
  5  6  2  0
  6  7  1  0
  7  8  1  0
  7  9  2  0
  9 10  1  0
 10 11  2  0
 11  5  1  0
  3 12  1  0
 12 13  1  0
 13 14  1  0
 14 15  1  0
 15 16  1  0
  2 17  1  0
M  END
$$$$
s_240690a____16789190____7412758
     RDKit          3D

 18 18  0  0  0  0  0  0  0  0999 V2000
    3.1233   -0.7065    1.0000 S   0  0  0  0  0  0  0  0  0  0  0  0
    2.5200    1.0000    1.0000 C   0  0  0  0  0  0  0  0  0  0  0  0
    1.0000    1.0000    1.0000 C   0  0  0  0  0  0  0  0  0  0  0  0
    0.4000    1.0000   -0.0392 O   0  0  0  0  0  0  0  0  0  0  0  0
    0.3150    1.0000    2.1865 N   0  0  0  0  0  0  0  0  0  0  0  0
   -1.1550    1.0000    2.1865 C   0  0  0  0  0  0  0  0  0  0  0  0
   -1.6617   -0.4113    1.9376 C   0  0  0  0  0  0  0  0  0  0  0  0
   -3.1317   -0.4113    1.9376 N   0  0  0  0  0  0  0  0  0  0  0  0
   -1.1551   -1.3323    3.0353 C   0  0  0  0  0  0  0  0  0  0  0  0
   -1.6617   -1.2021    4.3240 C   0  0  0  0  0  0  0  0  0  0  0  0
   -1.2020   -2.0424    5.3328 C   0  0  0  0  0  0  0  0  0  0  0  0
   -0.2403   -3.0035    5.0387 C   0  0  0  0  0  0  0  0  0  0  0  0
    0.2033   -3.8110    5.9983 F   0  0  0  0  0  0  0  0  0  0  0  0
    0.2704   -3.1373    3.7517 C   0  0  0  0  0  0  0  0  0  0  0  0
   -0.1933   -2.2946    2.7471 C   0  0  0  0  0  0  0  0  0  0  0  0
    4.9032   -0.3775    1.0000 C   0  0  0  0  0  0  0  0  0  0  0  0
    5.6619   -1.6947    1.0000 C   0  0  0  0  0  0  0  0  0  0  0  0
    7.1566   -1.4184    1.0000 C   0  0  0  0  0  0  0  0  0  0  0  0
  1  2  1  0
  2  3  1  0
  3  4  2  0
  3  5  1  0
  5  6  1  0
  6  7  1  0
  7  8  1  0
  7  9  1  0
  9 10  2  0
 10 11  1  0
 11 12  2  0
 12 13  1  0
 12 14  1  0
 14 15  2  0
 15  9  1  0
  1 16  1  0
 16 17  1  0
 17 18  1  0
M  CHG  1   8   1
M  END
$$$$
s_269946a____7297400____17057126
     RDKit          3D

 25 25  0  0  0  0  0  0  0  0999 V2000
    6.0844    4.1718    4.6187 O   0  0  0  0  0  0  0  0  0  0  0  0
    5.0321    3.5835    4.7213 C   0  0  0  0  0  0  0  0  0  0  0  0
    4.3712    3.6646    5.7792 O   0  0  0  0  0  0  0  0  0  0  0  0
    4.5136    2.7459    3.5637 C   0  0  0  0  0  0  0  0  0  0  0  0
    3.1838    2.1181    3.9482 C   0  0  0  0  0  0  0  0  0  0  0  0
    2.6825    1.3080    2.8287 N   0  0  0  0  0  0  0  0  0  0  0  0
    1.8776    1.8776    1.8776 C   0  0  0  0  0  0  0  0  0  0  0  0
    1.8654    3.0693    1.7373 O   0  0  0  0  0  0  0  0  0  0  0  0
    1.0000    1.0000    1.0000 C   0  0  0  0  0  0  0  0  0  0  0  0
    0.7171    1.6971   -0.2629 N   0  0  0  0  0  0  0  0  0  0  0  0
    1.1013    1.1397   -1.4540 C   0  0  0  0  0  0  0  0  0  0  0  0
    1.5876    0.0429   -1.4739 O   0  0  0  0  0  0  0  0  0  0  0  0
    0.9116    1.9107   -2.7501 C   0  0  0  0  0  0  0  0  0  0  0  0
    2.0609    1.6024   -3.6959 C   0  0  0  0  0  0  0  0  0  0  0  0
    1.5767    1.7073   -5.1328 C   0  0  0  0  0  0  0  0  0  0  0  0
    3.1866    2.5977   -3.4666 C   0  0  0  0  0  0  0  0  0  0  0  0
   -0.3059    0.7075    1.7208 C   0  0  0  0  0  0  0  0  0  0  0  0
   -0.9259   -0.5585    1.1522 C   0  0  0  0  0  0  0  0  0  0  0  0
   -0.6053   -1.7898    1.7144 C   0  0  0  0  0  0  0  0  0  0  0  0
   -1.1708   -2.9508    1.1979 C   0  0  0  0  0  0  0  0  0  0  0  0
   -2.0515   -2.8653    0.1243 C   0  0  0  0  0  0  0  0  0  0  0  0
   -2.6024   -3.9895   -0.3803 O   0  0  0  0  0  0  0  0  0  0  0  0
   -2.3753   -1.6365   -0.4419 C   0  0  0  0  0  0  0  0  0  0  0  0
   -1.8072   -0.4787    0.0788 C   0  0  0  0  0  0  0  0  0  0  0  0
    3.0447   -0.1132    2.7297 C   0  0  0  0  0  0  0  0  0  0  0  0
  1  2  1  0
  2  3  2  0
  2  4  1  0
  4  5  1  0
  5  6  1  0
  6  7  1  0
  7  8  2  0
  7  9  1  0
  9 10  1  0
 10 11  1  0
 11 12  2  0
 11 13  1  0
 13 14  1  0
 14 15  1  0
 14 16  1  0
  9 17  1  0
 17 18  1  0
 18 19  2  0
 19 20  1  0
 20 21  2  0
 21 22  1  0
 21 23  1  0
 23 24  2  0
 24 18  1  0
  6 25  1  0
M  CHG  1   1  -1
M  END
$$$$
s_1458____470822____10158468
     RDKit          3D

 21 21  0  0  0  0  0  0  0  0999 V2000
   -0.8683    4.2360   -0.4331 S   0  0  0  0  0  0  0  0  0  0  0  0
   -1.0099    4.4813   -2.2208 C   0  0  0  0  0  0  0  0  0  0  0  0
   -1.7572    5.7757   -2.4970 C   0  0  0  0  0  0  0  0  0  0  0  0
    0.3791    4.5575   -2.8333 C   0  0  0  0  0  0  0  0  0  0  0  0
    0.0367    2.6685   -0.4331 C   0  0  0  0  0  0  0  0  0  0  0  0
    0.2900    2.2298    1.0000 C   0  0  0  0  0  0  0  0  0  0  0  0
    1.0000    1.0000    1.0000 O   0  0  0  0  0  0  0  0  0  0  0  0
    2.3100    1.0000    1.0000 C   0  0  0  0  0  0  0  0  0  0  0  0
    2.9100    2.0382    1.0453 O   0  0  0  0  0  0  0  0  0  0  0  0
    3.0700   -0.3151    0.9426 C   0  0  0  0  0  0  0  0  0  0  0  0
    4.5456   -0.0594    1.2028 C   0  0  0  0  0  0  0  0  0  0  0  0
    5.2178   -1.3316    1.5036 N   0  0  0  0  0  0  0  0  0  0  0  0
    5.8469   -1.5059    2.7081 C   0  0  0  0  0  0  0  0  0  0  0  0
    5.8492   -0.6200    3.5175 O   0  0  0  0  0  0  0  0  0  0  0  0
    6.5420   -2.8214    3.0191 C   0  0  0  0  0  0  0  0  0  0  0  0
    5.1763    0.5680   -0.0300 C   0  0  0  0  0  0  0  0  0  0  0  0
    5.1128   -0.0965   -1.2504 C   0  0  0  0  0  0  0  0  0  0  0  0
    5.6919    0.4806   -2.3758 C   0  0  0  0  0  0  0  0  0  0  0  0
    6.3274    1.7139   -2.2760 C   0  0  0  0  0  0  0  0  0  0  0  0
    6.3843    2.3688   -1.0519 C   0  0  0  0  0  0  0  0  0  0  0  0
    5.8096    1.8018    0.0809 C   0  0  0  0  0  0  0  0  0  0  0  0
  1  2  1  0
  2  3  1  0
  2  4  1  0
  1  5  1  0
  5  6  1  0
  6  7  1  0
  7  8  1  0
  8  9  2  0
  8 10  1  0
 10 11  1  0
 11 12  1  0
 12 13  1  0
 13 14  2  0
 13 15  1  0
 11 16  1  0
 16 17  2  0
 17 18  1  0
 18 19  2  0
 19 20  1  0
 20 21  2  0
 21 16  1  0
M  END
$$$$
s_22____12206138____2834210
     RDKit          3D

 24 24  0  0  0  0  0  0  0  0999 V2000
    0.8326    2.9226    2.9226 S   0  0  0  0  0  0  0  0  0  0  0  0
    2.1288    3.8159    3.8159 C   0  0  0  0  0  0  0  0  0  0  0  0
    1.4914    4.7916    4.7916 C   0  0  0  0  0  0  0  0  0  0  0  0
    1.2397    5.9116    4.4419 O   0  0  0  0  0  0  0  0  0  0  0  0
    1.2167    4.4099    6.0143 O   0  0  0  0  0  0  0  0  0  0  0  0
    0.6212    5.3214    6.9258 C   0  0  0  0  0  0  0  0  0  0  0  0
    1.8776    1.8776    1.8776 C   0  0  0  0  0  0  0  0  0  0  0  0
    1.0000    1.0000    1.0000 C   0  0  0  0  0  0  0  0  0  0  0  0
    1.8776    0.1224    0.1224 C   0  0  0  0  0  0  0  0  0  0  0  0
    3.0725    0.2003    0.2003 O   0  0  0  0  0  0  0  0  0  0  0  0
    1.3043   -0.7574   -0.7574 N   0  0  0  0  0  0  0  0  0  0  0  0
    2.1530   -1.6061   -1.6061 C   0  0  0  0  0  0  0  0  0  0  0  0
    1.8605   -1.3136   -3.0688 C   0  0  0  0  0  0  0  0  0  0  0  0
    2.7591   -1.2675   -3.8628 O   0  0  0  0  0  0  0  0  0  0  0  0
    0.6275   -1.1119   -3.4625 O   0  0  0  0  0  0  0  0  0  0  0  0
    0.3542   -0.8386   -4.8289 C   0  0  0  0  0  0  0  0  0  0  0  0
    1.8605   -3.0688   -1.3136 C   0  0  0  0  0  0  0  0  0  0  0  0
    2.7383   -3.9466   -2.1914 C   0  0  0  0  0  0  0  0  0  0  0  0
    3.9920   -4.3481   -1.7408 C   0  0  0  0  0  0  0  0  0  0  0  0
    4.4447   -3.9668   -0.5272 O   0  0  0  0  0  0  0  0  0  0  0  0
    4.7955   -5.1513   -2.5442 C   0  0  0  0  0  0  0  0  0  0  0  0
    4.3447   -5.5532   -3.7978 C   0  0  0  0  0  0  0  0  0  0  0  0
    3.0908   -5.1520   -4.2477 C   0  0  0  0  0  0  0  0  0  0  0  0
    2.2876   -4.3492   -3.4442 C   0  0  0  0  0  0  0  0  0  0  0  0
  1  2  1  0
  2  3  1  0
  3  4  2  0
  3  5  1  0
  5  6  1  0
  1  7  1  0
  7  8  1  0
  8  9  1  0
  9 10  2  0
  9 11  1  0
 11 12  1  0
 12 13  1  0
 13 14  2  0
 13 15  1  0
 15 16  1  0
 12 17  1  0
 17 18  1  0
 18 19  2  0
 19 20  1  0
 19 21  1  0
 21 22  2  0
 22 23  1  0
 23 24  2  0
 24 18  1  0
M  END
$$$$
s_8____14594092____7689630
     RDKit          3D

 21 21  0  0  0  0  0  0  0  0999 V2000
    0.1750   -0.4289    1.0000 S   0  0  0  0  0  0  0  0  0  0  0  0
    1.0000    1.0000    1.0000 C   0  0  0  0  0  0  0  0  0  0  0  0
    2.3700    1.0000    1.0000 N   0  0  0  0  0  0  0  0  0  0  0  0
    3.1050    2.2731    1.0000 C   0  0  0  0  0  0  0  0  0  0  0  0
    3.0371    2.8973    2.3842 C   0  0  0  0  0  0  0  0  0  0  0  0
    2.8634    2.2032    3.3476 O   0  0  0  0  0  0  0  0  0  0  0  0
    3.1743    4.2524    2.5321 N   0  0  0  0  0  0  0  0  0  0  0  0
    3.0566    5.1350    1.3624 C   0  0  0  0  0  0  0  0  0  0  0  0
    3.4393    4.8237    3.8603 C   0  0  0  0  0  0  0  0  0  0  0  0
    4.5571    2.0197    0.6291 C   0  0  0  0  0  0  0  0  0  0  0  0
    4.6867    1.9363   -0.8834 C   0  0  0  0  0  0  0  0  0  0  0  0
    4.5501    0.7070   -1.5199 C   0  0  0  0  0  0  0  0  0  0  0  0
    4.6702    0.6350   -2.9039 C   0  0  0  0  0  0  0  0  0  0  0  0
    4.9238    1.7870   -3.6409 C   0  0  0  0  0  0  0  0  0  0  0  0
    5.0578    3.0096   -2.9945 C   0  0  0  0  0  0  0  0  0  0  0  0
    4.9405    3.0947   -1.6110 C   0  0  0  0  0  0  0  0  0  0  0  0
    0.3150    2.1865    1.0000 N   0  0  0  0  0  0  0  0  0  0  0  0
   -1.1550    2.1865    1.0000 C   0  0  0  0  0  0  0  0  0  0  0  0
   -1.6617    3.6195    1.0000 C   0  0  0  0  0  0  0  0  0  0  0  0
   -3.4717    3.6195    1.0000 S   0  0  0  0  0  0  0  0  0  0  0  0
   -3.7548    5.4072    1.0000 C   0  0  0  0  0  0  0  0  0  0  0  0
  1  2  2  0
  2  3  1  0
  3  4  1  0
  4  5  1  0
  5  6  2  0
  5  7  1  0
  7  8  1  0
  7  9  1  0
  4 10  1  0
 10 11  1  0
 11 12  2  0
 12 13  1  0
 13 14  2  0
 14 15  1  0
 15 16  2  0
 16 11  1  0
  2 17  1  0
 17 18  1  0
 18 19  1  0
 19 20  1  0
 20 21  1  0
M  END
$$$$
m_271722____10195612____17513462
     RDKit          3D

 21 22  0  0  0  0  0  0  0  0999 V2000
   -1.2551    1.8141   -0.2741 O   0  0  0  0  0  0  0  0  0  0  0  0
   -0.2423    1.9355   -0.9061 C   0  0  0  0  0  0  0  0  0  0  0  0
    0.9555    1.5559   -0.3601 N   0  0  0  0  0  0  0  0  0  0  0  0
    1.0000    1.0000    1.0000 C   0  0  0  0  0  0  0  0  0  0  0  0
    1.8776    1.8776    1.8776 C   0  0  0  0  0  0  0  0  0  0  0  0
    3.0883    2.2825    1.5756 O   0  0  0  0  0  0  0  0  0  0  0  0
    3.4972    3.0122    2.5875 C   0  0  0  0  0  0  0  0  0  0  0  0
    2.5564    3.0559    3.4991 N   0  0  0  0  0  0  0  0  0  0  0  0
    1.5430    2.3478    3.0566 N   0  0  0  0  0  0  0  0  0  0  0  0
    4.8501    3.6972    2.6847 C   0  0  0  0  0  0  0  0  0  0  0  0
    4.6495    5.1976    2.8223 C   0  0  0  0  0  0  0  0  0  0  0  0
    5.5976    3.1723    3.8996 C   0  0  0  0  0  0  0  0  0  0  0  0
    1.5748   -0.4064    0.9540 C   0  0  0  0  0  0  0  0  0  0  0  0
    0.6972   -1.2840    0.0764 C   0  0  0  0  0  0  0  0  0  0  0  0
    0.9658   -1.3762   -1.2853 C   0  0  0  0  0  0  0  0  0  0  0  0
    0.1659   -2.1786   -2.0921 C   0  0  0  0  0  0  0  0  0  0  0  0
   -0.8937   -2.8799   -1.5256 C   0  0  0  0  0  0  0  0  0  0  0  0
   -1.6727   -3.6595   -2.3050 O   0  0  0  0  0  0  0  0  0  0  0  0
   -1.1668   -2.7909   -0.1644 C   0  0  0  0  0  0  0  0  0  0  0  0
   -0.3635   -1.9875    0.6377 C   0  0  0  0  0  0  0  0  0  0  0  0
   -0.2884    2.5103   -2.3125 C   0  0  0  0  0  0  0  0  0  0  0  0
  1  2  2  0
  2  3  1  0
  3  4  1  0
  4  5  1  0
  5  6  1  0
  6  7  1  0
  7  8  2  0
  8  9  1  0
  5  9  2  0
  7 10  1  0
 10 11  1  0
 10 12  1  0
  4 13  1  0
 13 14  1  0
 14 15  2  0
 15 16  1  0
 16 17  2  0
 17 18  1  0
 17 19  1  0
 19 20  2  0
 20 14  1  0
  2 21  1  0
M  END
$$$$
s_240690a____7347540____17513472
     RDKit          3D

 22 22  0  0  0  0  0  0  0  0999 V2000
    0.9150    1.0000    3.2257 O   0  0  0  0  0  0  0  0  0  0  0  0
    0.3150    1.0000    2.1865 C   0  0  0  0  0  0  0  0  0  0  0  0
    1.0000    1.0000    1.0000 N   0  0  0  0  0  0  0  0  0  0  0  0
    2.4700    1.0000    1.0000 C   0  0  0  0  0  0  0  0  0  0  0  0
    2.9767    1.0000   -0.4331 C   0  0  0  0  0  0  0  0  0  0  0  0
    4.4967    1.0000   -0.4331 C   0  0  0  0  0  0  0  0  0  0  0  0
    4.9867    1.0000   -1.8190 N   0  0  0  0  0  0  0  0  0  0  0  0
    6.4567    1.0000   -1.8190 C   0  0  0  0  0  0  0  0  0  0  0  0
    5.0033    2.2411    0.2835 C   0  0  0  0  0  0  0  0  0  0  0  0
   -1.2050    1.0000    2.1865 C   0  0  0  0  0  0  0  0  0  0  0  0
   -1.6950    1.0000    3.5724 N   0  0  0  0  0  0  0  0  0  0  0  0
   -2.4826    2.0275    4.0205 C   0  0  0  0  0  0  0  0  0  0  0  0
   -2.7725    2.9275    3.2816 O   0  0  0  0  0  0  0  0  0  0  0  0
   -2.9893    2.0275    5.4535 C   0  0  0  0  0  0  0  0  0  0  0  0
   -1.7117   -0.2411    1.4699 C   0  0  0  0  0  0  0  0  0  0  0  0
   -3.2317   -0.2411    1.4699 C   0  0  0  0  0  0  0  0  0  0  0  0
   -3.9161    0.3644    0.4212 C   0  0  0  0  0  0  0  0  0  0  0  0
   -5.3069    0.3662    0.4166 C   0  0  0  0  0  0  0  0  0  0  0  0
   -5.9966   -0.2391    1.4624 C   0  0  0  0  0  0  0  0  0  0  0  0
   -7.3464   -0.2393    1.4621 O   0  0  0  0  0  0  0  0  0  0  0  0
   -5.3170   -0.8457    2.5138 C   0  0  0  0  0  0  0  0  0  0  0  0
   -3.9262   -0.8449    2.5131 C   0  0  0  0  0  0  0  0  0  0  0  0
  1  2  2  0
  2  3  1  0
  3  4  1  0
  4  5  1  0
  5  6  1  0
  6  7  1  0
  7  8  1  0
  6  9  1  0
  2 10  1  0
 10 11  1  0
 11 12  1  0
 12 13  2  0
 12 14  1  0
 10 15  1  0
 15 16  1  0
 16 17  2  0
 17 18  1  0
 18 19  2  0
 19 20  1  0
 19 21  1  0
 21 22  2  0
 22 16  1  0
M  CHG  1   7   1
M  END
$$$$
s_527a____13611728____14038892
     RDKit          3D

 26 26  0  0  0  0  0  0  0  0999 V2000
    2.0922   -1.6710    6.1805 I   0  0  0  0  0  0  0  0  0  0  0  0
    2.9750   -0.5321    4.5851 C   0  0  0  0  0  0  0  0  0  0  0  0
    2.1689    0.2694    3.7842 C   0  0  0  0  0  0  0  0  0  0  0  0
    2.7553    0.9999    2.7553 C   0  0  0  0  0  0  0  0  0  0  0  0
    4.1250    0.9367    2.5226 C   0  0  0  0  0  0  0  0  0  0  0  0
    4.9128    0.1281    3.3353 C   0  0  0  0  0  0  0  0  0  0  0  0
    4.3468   -0.6102    4.3693 C   0  0  0  0  0  0  0  0  0  0  0  0
    1.8776    1.8776    1.8776 C   0  0  0  0  0  0  0  0  0  0  0  0
    1.0289    2.7263    2.7263 N   0  0  0  0  0  0  0  0  0  0  0  0
    1.1178    4.0905    2.6374 C   0  0  0  0  0  0  0  0  0  0  0  0
    1.8884    4.5926    1.8667 O   0  0  0  0  0  0  0  0  0  0  0  0
    0.3614    4.8468    3.3937 O   0  0  0  0  0  0  0  0  0  0  0  0
    0.4535    6.2608    3.3016 C   0  0  0  0  0  0  0  0  0  0  0  0
    1.8685    6.6996    3.6418 C   0  0  0  0  0  0  0  0  0  0  0  0
    0.1134    6.6996    1.8866 C   0  0  0  0  0  0  0  0  0  0  0  0
   -0.5226    6.8969    4.2778 C   0  0  0  0  0  0  0  0  0  0  0  0
    1.0000    1.0000    1.0000 C   0  0  0  0  0  0  0  0  0  0  0  0
    1.8776    0.1224    0.1224 C   0  0  0  0  0  0  0  0  0  0  0  0
    3.0725    0.2003    0.2003 O   0  0  0  0  0  0  0  0  0  0  0  0
    1.3043   -0.7574   -0.7574 N   0  0  0  0  0  0  0  0  0  0  0  0
   -0.1595   -0.8528   -0.8528 C   0  0  0  0  0  0  0  0  0  0  0  0
   -0.6640   -1.8990    0.1277 C   0  0  0  0  0  0  0  0  0  0  0  0
   -1.3188   -2.9347   -0.3067 C   0  0  0  0  0  0  0  0  0  0  0  0
    2.1530   -1.6061   -1.6061 C   0  0  0  0  0  0  0  0  0  0  0  0
    2.4456   -0.8853   -2.9120 C   0  0  0  0  0  0  0  0  0  0  0  0
    3.3231   -1.7629   -3.7896 C   0  0  0  0  0  0  0  0  0  0  0  0
  1  2  1  0
  2  3  2  0
  3  4  1  0
  4  5  2  0
  5  6  1  0
  6  7  2  0
  7  2  1  0
  4  8  1  0
  8  9  1  0
  9 10  1  0
 10 11  2  0
 10 12  1  0
 12 13  1  0
 13 14  1  0
 13 15  1  0
 13 16  1  0
  8 17  1  0
 17 18  1  0
 18 19  2  0
 18 20  1  0
 20 21  1  0
 21 22  1  0
 22 23  2  0
 20 24  1  0
 24 25  1  0
 25 26  1  0
M  END
$$$$
s_22____14421750____13287720
     RDKit          3D

 20 20  0  0  0  0  0  0  0  0999 V2000
    6.2725   -1.9266    1.5484 S   0  0  0  0  0  0  0  0  0  0  0  0
    4.7399   -1.6717    2.2411 C   0  0  0  0  0  0  0  0  0  0  0  0
    4.3393   -2.8513    2.7869 C   0  0  0  0  0  0  0  0  0  0  0  0
    5.2846   -3.8988    2.6061 C   0  0  0  0  0  0  0  0  0  0  0  0
    6.4265   -3.5775    1.9355 C   0  0  0  0  0  0  0  0  0  0  0  0
    3.9789   -0.3536    2.2411 C   0  0  0  0  0  0  0  0  0  0  0  0
    3.1050   -0.2731    1.0000 C   0  0  0  0  0  0  0  0  0  0  0  0
    2.3700    1.0000    1.0000 N   0  0  0  0  0  0  0  0  0  0  0  0
    1.0000    1.0000    1.0000 C   0  0  0  0  0  0  0  0  0  0  0  0
    0.4000   -0.0392    1.0000 O   0  0  0  0  0  0  0  0  0  0  0  0
    0.2400    2.3164    1.0000 C   0  0  0  0  0  0  0  0  0  0  0  0
    0.0843    2.9770   -0.1087 C   0  0  0  0  0  0  0  0  0  0  0  0
   -0.3380    2.8602    2.2964 C   0  0  0  0  0  0  0  0  0  0  0  0
    0.7843    3.0841    3.2968 C   0  0  0  0  0  0  0  0  0  0  0  0
    1.7790    4.0825    2.7274 C   0  0  0  0  0  0  0  0  0  0  0  0
    0.2063    3.6280    4.5932 C   0  0  0  0  0  0  0  0  0  0  0  0
    3.9789   -0.3536   -0.2411 C   0  0  0  0  0  0  0  0  0  0  0  0
    4.0832   -1.3910   -0.8352 O   0  0  0  0  0  0  0  0  0  0  0  0
    4.6181    0.7095   -0.6621 O   0  0  0  0  0  0  0  0  0  0  0  0
    5.4345    0.6343   -1.8216 C   0  0  0  0  0  0  0  0  0  0  0  0
  1  2  1  0
  2  3  2  0
  3  4  1  0
  4  5  2  0
  5  1  1  0
  2  6  1  0
  6  7  1  0
  7  8  1  0
  8  9  1  0
  9 10  2  0
  9 11  1  0
 11 12  2  0
 11 13  1  0
 13 14  1  0
 14 15  1  0
 14 16  1  0
  7 17  1  0
 17 18  2  0
 17 19  1  0
 19 20  1  0
M  END
$$$$
s_276436a____14085750____14087428
     RDKit          3D

 23 23  0  0  0  0  0  0  0  0999 V2000
    0.9441    1.0453    3.1732 O   0  0  0  0  0  0  0  0  0  0  0  0
    0.3450    1.0000    2.1345 C   0  0  0  0  0  0  0  0  0  0  0  0
    1.0000    1.0000    1.0000 O   0  0  0  0  0  0  0  0  0  0  0  0
    2.4200    1.0000    1.0000 C   0  0  0  0  0  0  0  0  0  0  0  0
    2.9267   -0.4331    1.0000 C   0  0  0  0  0  0  0  0  0  0  0  0
    3.6741   -0.8583    0.0250 C   0  0  0  0  0  0  0  0  0  0  0  0
    4.0413    0.0777   -1.1150 C   0  0  0  0  0  0  0  0  0  0  0  0
    5.5527    0.2226   -1.1847 C   0  0  0  0  0  0  0  0  0  0  0  0
    5.9199    1.1585   -2.3247 C   0  0  0  0  0  0  0  0  0  0  0  0
   -1.1739    0.9426    2.1351 C   0  0  0  0  0  0  0  0  0  0  0  0
   -1.6902    1.2028    3.5409 C   0  0  0  0  0  0  0  0  0  0  0  0
   -3.1592    1.1473    3.5415 N   0  0  0  0  0  0  0  0  0  0  0  0
   -3.8096    0.2300    4.3240 C   0  0  0  0  0  0  0  0  0  0  0  0
   -3.1803   -0.5281    5.0090 O   0  0  0  0  0  0  0  0  0  0  0  0
   -5.3286    0.1726    4.3247 C   0  0  0  0  0  0  0  0  0  0  0  0
   -1.2350    2.5781    4.0013 C   0  0  0  0  0  0  0  0  0  0  0  0
   -1.5769    3.6987    3.2516 C   0  0  0  0  0  0  0  0  0  0  0  0
   -1.1632    4.9592    3.6695 C   0  0  0  0  0  0  0  0  0  0  0  0
   -0.4120    5.0829    4.8340 C   0  0  0  0  0  0  0  0  0  0  0  0
   -0.0081    6.3042    5.2430 O   0  0  0  0  0  0  0  0  0  0  0  0
    1.0134    6.4232    6.2221 C   0  0  0  0  0  0  0  0  0  0  0  0
   -0.0670    3.9653    5.5872 C   0  0  0  0  0  0  0  0  0  0  0  0
   -0.4837    2.7074    5.1650 C   0  0  0  0  0  0  0  0  0  0  0  0
  1  2  2  0
  2  3  1  0
  3  4  1  0
  4  5  1  0
  5  6  2  0
  6  7  1  0
  7  8  1  0
  8  9  1  0
  2 10  1  0
 10 11  1  0
 11 12  1  0
 12 13  1  0
 13 14  2  0
 13 15  1  0
 11 16  1  0
 16 17  2  0
 17 18  1  0
 18 19  2  0
 19 20  1  0
 20 21  1  0
 19 22  1  0
 22 23  2  0
 23 16  1  0
M  END
$$$$
s_22____16911156____548072
     RDKit          3D

 23 23  0  0  0  0  0  0  0  0999 V2000
   -2.1358   -0.3848    7.8136 Br  0  0  0  0  0  0  0  0  0  0  0  0
   -1.5154    0.6335    6.2580 C   0  0  0  0  0  0  0  0  0  0  0  0
   -1.1884    1.9781    6.4005 C   0  0  0  0  0  0  0  0  0  0  0  0
   -0.7487    2.6956    5.2929 C   0  0  0  0  0  0  0  0  0  0  0  0
   -0.6411    2.0630    4.0588 C   0  0  0  0  0  0  0  0  0  0  0  0
   -0.9699    0.7178    3.9234 C   0  0  0  0  0  0  0  0  0  0  0  0
   -1.4104   -0.0060    5.0266 C   0  0  0  0  0  0  0  0  0  0  0  0
   -0.1595    2.8528    2.8528 C   0  0  0  0  0  0  0  0  0  0  0  0
    1.3043    2.7574    2.7574 N   0  0  0  0  0  0  0  0  0  0  0  0
    1.8776    1.8776    1.8776 C   0  0  0  0  0  0  0  0  0  0  0  0
    3.0725    1.7997    1.7997 O   0  0  0  0  0  0  0  0  0  0  0  0
    1.0000    1.0000    1.0000 C   0  0  0  0  0  0  0  0  0  0  0  0
    0.6517    1.8583   -0.5550 S   0  0  0  0  0  0  0  0  0  0  0  0
   -0.3759    0.5981   -1.3500 C   0  0  0  0  0  0  0  0  0  0  0  0
   -0.8140    1.0914   -2.7194 C   0  0  0  0  0  0  0  0  0  0  0  0
   -1.6769    0.0332   -3.3870 C   0  0  0  0  0  0  0  0  0  0  0  0
   -2.1149    0.5265   -4.7564 C   0  0  0  0  0  0  0  0  0  0  0  0
    2.1530    3.6061    3.6061 C   0  0  0  0  0  0  0  0  0  0  0  0
    2.4456    4.9120    2.8853 C   0  0  0  0  0  0  0  0  0  0  0  0
    1.9953    5.1067    1.7902 O   0  0  0  0  0  0  0  0  0  0  0  0
    3.2232    5.8667    3.4860 N   0  0  0  0  0  0  0  0  0  0  0  0
    3.5061    7.1296    2.7889 C   0  0  0  0  0  0  0  0  0  0  0  0
    3.7747    5.6281    4.8275 C   0  0  0  0  0  0  0  0  0  0  0  0
  1  2  1  0
  2  3  2  0
  3  4  1  0
  4  5  2  0
  5  6  1  0
  6  7  2  0
  7  2  1  0
  5  8  1  0
  8  9  1  0
  9 10  1  0
 10 11  2  0
 10 12  1  0
 12 13  1  0
 13 14  1  0
 14 15  1  0
 15 16  1  0
 16 17  1  0
  9 18  1  0
 18 19  1  0
 19 20  2  0
 19 21  1  0
 21 22  1  0
 21 23  1  0
M  END
$$$$
s_276436a____15413918____14087426
     RDKit          3D

 22 22  0  0  0  0  0  0  0  0999 V2000
    0.4000    1.0000   -0.0392 O   0  0  0  0  0  0  0  0  0  0  0  0
    1.0000    1.0000    1.0000 C   0  0  0  0  0  0  0  0  0  0  0  0
    0.3450    1.0000    2.1345 O   0  0  0  0  0  0  0  0  0  0  0  0
   -1.0750    1.0000    2.1345 C   0  0  0  0  0  0  0  0  0  0  0  0
   -1.5817    2.2411    2.8510 C   0  0  0  0  0  0  0  0  0  0  0  0
   -1.7983    3.3347    2.1824 C   0  0  0  0  0  0  0  0  0  0  0  0
   -1.5817   -0.2411    2.8510 C   0  0  0  0  0  0  0  0  0  0  0  0
   -1.0750   -0.2411    4.2841 C   0  0  0  0  0  0  0  0  0  0  0  0
   -3.1017   -0.2411    2.8510 C   0  0  0  0  0  0  0  0  0  0  0  0
    2.5200    1.0000    1.0000 C   0  0  0  0  0  0  0  0  0  0  0  0
    3.0267    1.2488   -0.4113 C   0  0  0  0  0  0  0  0  0  0  0  0
    4.4855    1.4277   -0.3838 N   0  0  0  0  0  0  0  0  0  0  0  0
    5.0404    2.5995   -0.8262 C   0  0  0  0  0  0  0  0  0  0  0  0
    4.3356    3.4799   -1.2362 O   0  0  0  0  0  0  0  0  0  0  0  0
    6.5489    2.7844   -0.7978 C   0  0  0  0  0  0  0  0  0  0  0  0
    2.6785    0.0596   -1.2917 C   0  0  0  0  0  0  0  0  0  0  0  0
    3.1261   -1.2106   -0.9433 C   0  0  0  0  0  0  0  0  0  0  0  0
    2.8054   -2.2951   -1.7528 C   0  0  0  0  0  0  0  0  0  0  0  0
    2.0414   -2.0975   -2.8988 C   0  0  0  0  0  0  0  0  0  0  0  0
    1.5921   -0.8269   -3.2452 C   0  0  0  0  0  0  0  0  0  0  0  0
    1.9140    0.2579   -2.4364 C   0  0  0  0  0  0  0  0  0  0  0  0
    1.6955   -3.2868   -3.7804 C   0  0  0  0  0  0  0  0  0  0  0  0
  1  2  2  0
  2  3  1  0
  3  4  1  0
  4  5  1  0
  5  6  2  0
  4  7  1  0
  7  8  1  0
  7  9  1  0
  2 10  1  0
 10 11  1  0
 11 12  1  0
 12 13  1  0
 13 14  2  0
 13 15  1  0
 11 16  1  0
 16 17  2  0
 17 18  1  0
 18 19  2  0
 19 20  1  0
 20 21  2  0
 21 16  1  0
 19 22  1  0
M  END
$$$$
s_11a____5137414____220031
     RDKit          3D

 20 20  0  0  0  0  0  0  0  0999 V2000
    1.5239    0.0595   -2.5424 S   0  0  0  0  0  0  0  0  0  0  0  0
    2.6781    0.0581   -1.2928 C   0  0  0  0  0  0  0  0  0  0  0  0
    3.2192   -1.1886   -1.2409 C   0  0  0  0  0  0  0  0  0  0  0  0
    2.6651   -2.0775   -2.2033 C   0  0  0  0  0  0  0  0  0  0  0  0
    1.7023   -1.5650   -3.0201 C   0  0  0  0  0  0  0  0  0  0  0  0
    3.0267    1.2488   -0.4113 C   0  0  0  0  0  0  0  0  0  0  0  0
    4.4855    1.4277   -0.3838 N   0  0  0  0  0  0  0  0  0  0  0  0
    5.0404    2.5995   -0.8262 C   0  0  0  0  0  0  0  0  0  0  0  0
    4.3356    3.4799   -1.2362 O   0  0  0  0  0  0  0  0  0  0  0  0
    6.5489    2.7844   -0.7978 C   0  0  0  0  0  0  0  0  0  0  0  0
    2.5200    1.0000    1.0000 C   0  0  0  0  0  0  0  0  0  0  0  0
    1.0000    1.0000    1.0000 C   0  0  0  0  0  0  0  0  0  0  0  0
    0.4000    1.0000   -0.0392 O   0  0  0  0  0  0  0  0  0  0  0  0
    0.3150    1.0000    2.1865 N   0  0  0  0  0  0  0  0  0  0  0  0
   -1.1550    1.0000    2.1865 C   0  0  0  0  0  0  0  0  0  0  0  0
   -1.6617   -0.2411    2.9030 C   0  0  0  0  0  0  0  0  0  0  0  0
   -3.4717   -0.2411    2.9030 S   0  0  0  0  0  0  0  0  0  0  0  0
   -3.7548   -1.7893    3.7968 C   0  0  0  0  0  0  0  0  0  0  0  0
   -1.6617    2.2411    2.9030 C   0  0  0  0  0  0  0  0  0  0  0  0
    1.0500    1.0000    3.4595 C   0  0  0  0  0  0  0  0  0  0  0  0
  1  2  1  0
  2  3  2  0
  3  4  1  0
  4  5  2  0
  5  1  1  0
  2  6  1  0
  6  7  1  0
  7  8  1  0
  8  9  2  0
  8 10  1  0
  6 11  1  0
 11 12  1  0
 12 13  2  0
 12 14  1  0
 14 15  1  0
 15 16  1  0
 16 17  1  0
 17 18  1  0
 15 19  1  0
 14 20  1  0
M  END
$$$$
s_240690a____7868478____17057130
     RDKit          3D

 20 20  0  0  0  0  0  0  0  0999 V2000
    3.1767    1.0994   -1.2506 O   0  0  0  0  0  0  0  0  0  0  0  0
    2.9767    1.7165   -0.2411 C   0  0  0  0  0  0  0  0  0  0  0  0
    3.2050    3.0669   -0.2071 N   0  0  0  0  0  0  0  0  0  0  0  0
    3.6883    3.7505   -1.3911 N   0  0  0  0  0  0  0  0  0  0  0  0
    2.4700    1.0000    1.0000 C   0  0  0  0  0  0  0  0  0  0  0  0
    1.0000    1.0000    1.0000 N   0  0  0  0  0  0  0  0  0  0  0  0
    0.3150    1.0000    2.1865 C   0  0  0  0  0  0  0  0  0  0  0  0
    0.9150    1.0000    3.2257 O   0  0  0  0  0  0  0  0  0  0  0  0
   -1.2050    1.0000    2.1865 C   0  0  0  0  0  0  0  0  0  0  0  0
   -1.7117   -0.4331    2.1865 C   0  0  0  0  0  0  0  0  0  0  0  0
   -3.2317   -0.4331    2.1865 C   0  0  0  0  0  0  0  0  0  0  0  0
   -1.2050   -1.1496    0.9454 C   0  0  0  0  0  0  0  0  0  0  0  0
    2.9767   -0.4331    1.0000 C   0  0  0  0  0  0  0  0  0  0  0  0
    4.4507   -0.4493    1.3709 C   0  0  0  0  0  0  0  0  0  0  0  0
    4.8363   -0.0915    2.6586 C   0  0  0  0  0  0  0  0  0  0  0  0
    6.1839   -0.1057    3.0027 C   0  0  0  0  0  0  0  0  0  0  0  0
    7.1299   -0.4786    2.0531 C   0  0  0  0  0  0  0  0  0  0  0  0
    8.4388   -0.4934    2.3828 O   0  0  0  0  0  0  0  0  0  0  0  0
    6.7496   -0.8370    0.7639 C   0  0  0  0  0  0  0  0  0  0  0  0
    5.4007   -0.8215    0.4253 C   0  0  0  0  0  0  0  0  0  0  0  0
  1  2  2  0
  2  3  1  0
  3  4  1  0
  2  5  1  0
  5  6  1  0
  6  7  1  0
  7  8  2  0
  7  9  1  0
  9 10  1  0
 10 11  1  0
 10 12  1  0
  5 13  1  0
 13 14  1  0
 14 15  2  0
 15 16  1  0
 16 17  2  0
 17 18  1  0
 17 19  1  0
 19 20  2  0
 20 14  1  0
M  END
$$$$
s_22____1281834____7841202
     RDKit          3D

 20 20  0  0  0  0  0  0  0  0999 V2000
    0.2153   -1.1412    4.7651 S   0  0  0  0  0  0  0  0  0  0  0  0
    0.1737    0.6641    4.6417 C   0  0  0  0  0  0  0  0  0  0  0  0
    1.0707    1.1147    3.5003 C   0  0  0  0  0  0  0  0  0  0  0  0
    0.3150    1.0000    2.1865 C   0  0  0  0  0  0  0  0  0  0  0  0
   -0.8816    0.9094    2.1884 O   0  0  0  0  0  0  0  0  0  0  0  0
    1.0000    1.0000    1.0000 N   0  0  0  0  0  0  0  0  0  0  0  0
    2.4700    1.0000    1.0000 C   0  0  0  0  0  0  0  0  0  0  0  0
    2.9767    1.0000   -0.4331 C   0  0  0  0  0  0  0  0  0  0  0  0
    4.4969    1.0000   -0.4331 C   0  0  0  0  0  0  0  0  0  0  0  0
    5.1928   -0.2051   -0.4331 C   0  0  0  0  0  0  0  0  0  0  0  0
    6.5840   -0.2049   -0.4326 C   0  0  0  0  0  0  0  0  0  0  0  0
    7.2796    0.9998   -0.4320 C   0  0  0  0  0  0  0  0  0  0  0  0
    6.5840    2.2047   -0.4329 C   0  0  0  0  0  0  0  0  0  0  0  0
    5.1924    2.2047   -0.4330 C   0  0  0  0  0  0  0  0  0  0  0  0
    4.4677   -1.5413   -0.4334 C   0  0  0  0  0  0  0  0  0  0  0  0
    3.7054   -1.6317   -1.5195 F   0  0  0  0  0  0  0  0  0  0  0  0
    5.3583   -2.5291   -0.4333 F   0  0  0  0  0  0  0  0  0  0  0  0
    3.7049   -1.6320    0.6523 F   0  0  0  0  0  0  0  0  0  0  0  0
    0.6671    1.2725    5.9443 C   0  0  0  0  0  0  0  0  0  0  0  0
   -1.1344   -1.3753    5.9482 C   0  0  0  0  0  0  0  0  0  0  0  0
  1  2  1  0
  2  3  1  0
  3  4  1  0
  4  5  2  0
  4  6  1  0
  6  7  1  0
  7  8  1  0
  8  9  1  0
  9 10  2  0
 10 11  1  0
 11 12  2  0
 12 13  1  0
 13 14  2  0
 14  9  1  0
 10 15  1  0
 15 16  1  0
 15 17  1  0
 15 18  1  0
  2 19  1  0
  1 20  1  0
M  END
$$$$
s_8____13611712____83751
     RDKit          3D

 20 20  0  0  0  0  0  0  0  0999 V2000
    1.1400    1.0000    3.6154 S   0  0  0  0  0  0  0  0  0  0  0  0
    0.3150    1.0000    2.1865 C   0  0  0  0  0  0  0  0  0  0  0  0
   -1.0550    1.0000    2.1865 N   0  0  0  0  0  0  0  0  0  0  0  0
   -1.7900    1.0000    3.4595 C   0  0  0  0  0  0  0  0  0  0  0  0
   -2.0433    2.4331    3.8983 C   0  0  0  0  0  0  0  0  0  0  0  0
   -3.2614    2.8583    4.0581 C   0  0  0  0  0  0  0  0  0  0  0  0
   -1.7900    1.0000    0.9134 C   0  0  0  0  0  0  0  0  0  0  0  0
   -2.2588   -0.4113    0.5990 C   0  0  0  0  0  0  0  0  0  0  0  0
   -3.0188   -0.4113   -0.7173 C   0  0  0  0  0  0  0  0  0  0  0  0
    1.0000    1.0000    1.0000 N   0  0  0  0  0  0  0  0  0  0  0  0
    2.4700    1.0000    1.0000 C   0  0  0  0  0  0  0  0  0  0  0  0
    2.9767   -0.4331    1.0000 C   0  0  0  0  0  0  0  0  0  0  0  0
    4.4967   -0.4331    1.0000 C   0  0  0  0  0  0  0  0  0  0  0  0
    5.1811   -0.4331    2.2110 C   0  0  0  0  0  0  0  0  0  0  0  0
    6.5719   -0.4338    2.2159 C   0  0  0  0  0  0  0  0  0  0  0  0
    7.2616   -0.4351    1.0075 C   0  0  0  0  0  0  0  0  0  0  0  0
    8.6114   -0.4355    1.0077 O   0  0  0  0  0  0  0  0  0  0  0  0
    9.3216   -0.4367   -0.2220 C   0  0  0  0  0  0  0  0  0  0  0  0
    6.5820   -0.4347   -0.2063 C   0  0  0  0  0  0  0  0  0  0  0  0
    5.1912   -0.4344   -0.2053 C   0  0  0  0  0  0  0  0  0  0  0  0
  1  2  2  0
  2  3  1  0
  3  4  1  0
  4  5  1  0
  5  6  2  0
  3  7  1  0
  7  8  1  0
  8  9  1  0
  2 10  1  0
 10 11  1  0
 11 12  1  0
 12 13  1  0
 13 14  2  0
 14 15  1  0
 15 16  2  0
 16 17  1  0
 17 18  1  0
 16 19  1  0
 19 20  2  0
 20 13  1  0
M  END
$$$$
s_270062____16420882____15585492
     RDKit          3D

 18 18  0  0  0  0  0  0  0  0999 V2000
    0.6642    1.0677    4.1675 O   0  0  0  0  0  0  0  0  0  0  0  0
    0.4652    2.2114    3.8639 C   0  0  0  0  0  0  0  0  0  0  0  0
    1.0289    2.7263    2.7263 N   0  0  0  0  0  0  0  0  0  0  0  0
    1.8776    1.8776    1.8776 C   0  0  0  0  0  0  0  0  0  0  0  0
    1.0000    1.0000    1.0000 C   0  0  0  0  0  0  0  0  0  0  0  0
    0.1802    1.8198    0.1802 O   0  0  0  0  0  0  0  0  0  0  0  0
   -0.6397    1.0000   -0.6397 C   0  0  0  0  0  0  0  0  0  0  0  0
   -2.1023    1.2925   -0.3472 C   0  0  0  0  0  0  0  0  0  0  0  0
   -0.3472    1.2925   -2.1023 C   0  0  0  0  0  0  0  0  0  0  0  0
    1.8778    0.1222    0.1222 C   0  0  0  0  0  0  0  0  0  0  0  0
    1.7874   -1.2634    0.2126 C   0  0  0  0  0  0  0  0  0  0  0  0
    0.9260   -1.8447    1.0749 O   0  0  0  0  0  0  0  0  0  0  0  0
    0.8473   -3.2603    1.1536 C   0  0  0  0  0  0  0  0  0  0  0  0
    2.5908   -2.0667   -0.5905 C   0  0  0  0  0  0  0  0  0  0  0  0
    3.4842   -1.4843   -1.4844 C   0  0  0  0  0  0  0  0  0  0  0  0
    3.5738   -0.0988   -1.5750 C   0  0  0  0  0  0  0  0  0  0  0  0
    2.7702    0.7041   -0.7721 C   0  0  0  0  0  0  0  0  0  0  0  0
   -0.4124    3.0890    4.7414 C   0  0  0  0  0  0  0  0  0  0  0  0
  1  2  2  0
  2  3  1  0
  3  4  1  0
  4  5  1  0
  5  6  1  0
  6  7  1  0
  7  8  1  0
  7  9  1  0
  5 10  1  0
 10 11  2  0
 11 12  1  0
 12 13  1  0
 11 14  1  0
 14 15  2  0
 15 16  1  0
 16 17  2  0
 17 10  1  0
  2 18  1  0
M  END
$$$$
s_188690b____2735030____10870446
     RDKit          3D

 19 19  0  0  0  0  0  0  0  0999 V2000
    2.6121    3.1711   -0.6428 S   0  0  0  0  0  0  0  0  0  0  0  0
    3.0267    1.4309   -0.3667 C   0  0  0  0  0  0  0  0  0  0  0  0
    2.5200    1.0000    1.0000 C   0  0  0  0  0  0  0  0  0  0  0  0
    1.0000    1.0000    1.0000 C   0  0  0  0  0  0  0  0  0  0  0  0
    0.4000    1.0000   -0.0392 O   0  0  0  0  0  0  0  0  0  0  0  0
    0.3150    1.0000    2.1865 N   0  0  0  0  0  0  0  0  0  0  0  0
   -1.1550    1.0000    2.1865 C   0  0  0  0  0  0  0  0  0  0  0  0
   -1.6617    2.2411    2.9030 C   0  0  0  0  0  0  0  0  0  0  0  0
   -2.7917    2.6300    2.7137 O   0  0  0  0  0  0  0  0  0  0  0  0
   -0.9109    2.8599    3.6878 O   0  0  0  0  0  0  0  0  0  0  0  0
   -1.6617   -0.2411    2.9030 C   0  0  0  0  0  0  0  0  0  0  0  0
   -1.1549   -1.4824    2.1863 C   0  0  0  0  0  0  0  0  0  0  0  0
    0.0614   -2.0450    2.5591 C   0  0  0  0  0  0  0  0  0  0  0  0
    0.5218   -3.1803    1.9002 C   0  0  0  0  0  0  0  0  0  0  0  0
   -0.2332   -3.7453    0.8778 C   0  0  0  0  0  0  0  0  0  0  0  0
   -1.4469   -3.1750    0.5142 C   0  0  0  0  0  0  0  0  0  0  0  0
   -1.9179   -2.0394    1.1649 C   0  0  0  0  0  0  0  0  0  0  0  0
    4.5351    1.2538   -0.4269 C   0  0  0  0  0  0  0  0  0  0  0  0
    3.3241    3.3732   -2.2945 C   0  0  0  0  0  0  0  0  0  0  0  0
  1  2  1  0
  2  3  1  0
  3  4  1  0
  4  5  2  0
  4  6  1  0
  6  7  1  0
  7  8  1  0
  8  9  1  0
  8 10  2  0
  7 11  1  0
 11 12  1  0
 12 13  2  0
 13 14  1  0
 14 15  2  0
 15 16  1  0
 16 17  2  0
 17 12  1  0
  2 18  1  0
  1 19  1  0
M  CHG  1   9  -1
M  END
$$$$
s_1458____17513454____15113670
     RDKit          3D

 23 23  0  0  0  0  0  0  0  0999 V2000
    0.9450    1.0000    3.1737 O   0  0  0  0  0  0  0  0  0  0  0  0
    0.3450    1.0000    2.1345 C   0  0  0  0  0  0  0  0  0  0  0  0
    1.0000    1.0000    1.0000 O   0  0  0  0  0  0  0  0  0  0  0  0
    2.4200    1.0000    1.0000 C   0  0  0  0  0  0  0  0  0  0  0  0
    2.9267   -0.4331    1.0000 C   0  0  0  0  0  0  0  0  0  0  0  0
    2.1469   -1.3452    1.0000 O   0  0  0  0  0  0  0  0  0  0  0  0
    4.2736   -0.6834    1.0000 N   0  0  0  0  0  0  0  0  0  0  0  0
    4.7636   -2.0693    1.0000 C   0  0  0  0  0  0  0  0  0  0  0  0
    4.9325   -2.5470   -0.4331 C   0  0  0  0  0  0  0  0  0  0  0  0
    5.2289    0.4339    1.0000 C   0  0  0  0  0  0  0  0  0  0  0  0
   -1.1750    1.0000    2.1345 C   0  0  0  0  0  0  0  0  0  0  0  0
   -1.6650    1.0000    3.5204 N   0  0  0  0  0  0  0  0  0  0  0  0
   -2.4526    2.0275    3.9685 C   0  0  0  0  0  0  0  0  0  0  0  0
   -2.7425    2.9275    3.2296 O   0  0  0  0  0  0  0  0  0  0  0  0
   -2.9593    2.0275    5.4016 C   0  0  0  0  0  0  0  0  0  0  0  0
   -1.6817   -0.2411    1.4180 C   0  0  0  0  0  0  0  0  0  0  0  0
   -3.2017   -0.2411    1.4180 C   0  0  0  0  0  0  0  0  0  0  0  0
   -3.8861    0.3644    0.3692 C   0  0  0  0  0  0  0  0  0  0  0  0
   -5.2769    0.3662    0.3646 C   0  0  0  0  0  0  0  0  0  0  0  0
   -5.9666   -0.2391    1.4104 C   0  0  0  0  0  0  0  0  0  0  0  0
   -7.3164   -0.2393    1.4101 O   0  0  0  0  0  0  0  0  0  0  0  0
   -5.2870   -0.8457    2.4618 C   0  0  0  0  0  0  0  0  0  0  0  0
   -3.8962   -0.8449    2.4611 C   0  0  0  0  0  0  0  0  0  0  0  0
  1  2  2  0
  2  3  1  0
  3  4  1  0
  4  5  1  0
  5  6  2  0
  5  7  1  0
  7  8  1  0
  8  9  1  0
  7 10  1  0
  2 11  1  0
 11 12  1  0
 12 13  1  0
 13 14  2  0
 13 15  1  0
 11 16  1  0
 16 17  1  0
 17 18  2  0
 18 19  1  0
 19 20  2  0
 20 21  1  0
 20 22  1  0
 22 23  2  0
 23 17  1  0
M  END
$$$$
s_22____4822192____17513450
     RDKit          3D

 22 23  0  0  0  0  0  0  0  0999 V2000
    0.4000    1.0000   -0.0392 O   0  0  0  0  0  0  0  0  0  0  0  0
    1.0000    1.0000    1.0000 C   0  0  0  0  0  0  0  0  0  0  0  0
    0.3150    1.0000    2.1865 N   0  0  0  0  0  0  0  0  0  0  0  0
   -1.1550    1.0000    2.1865 C   0  0  0  0  0  0  0  0  0  0  0  0
   -1.6621   -0.4126    1.9374 C   0  0  0  0  0  0  0  0  0  0  0  0
   -3.1583   -0.5277    1.9171 C   0  0  0  0  0  0  0  0  0  0  0  0
   -2.3895   -0.5093    0.6271 C   0  0  0  0  0  0  0  0  0  0  0  0
   -3.9665    0.7225    2.2209 C   0  0  0  0  0  0  0  0  0  0  0  0
   -3.7339   -1.8826    2.2960 C   0  0  0  0  0  0  0  0  0  0  0  0
    2.5200    1.0000    1.0000 C   0  0  0  0  0  0  0  0  0  0  0  0
    3.0100    1.0000   -0.3859 N   0  0  0  0  0  0  0  0  0  0  0  0
    3.7976    2.0275   -0.8340 C   0  0  0  0  0  0  0  0  0  0  0  0
    4.0875    2.9275   -0.0951 O   0  0  0  0  0  0  0  0  0  0  0  0
    4.3043    2.0275   -2.2671 C   0  0  0  0  0  0  0  0  0  0  0  0
    3.0267   -0.2411    1.7165 C   0  0  0  0  0  0  0  0  0  0  0  0
    4.5467   -0.2411    1.7165 C   0  0  0  0  0  0  0  0  0  0  0  0
    5.2311    0.3644    2.7653 C   0  0  0  0  0  0  0  0  0  0  0  0
    6.6219    0.3662    2.7699 C   0  0  0  0  0  0  0  0  0  0  0  0
    7.3116   -0.2391    1.7241 C   0  0  0  0  0  0  0  0  0  0  0  0
    8.6614   -0.2393    1.7244 O   0  0  0  0  0  0  0  0  0  0  0  0
    6.6320   -0.8457    0.6727 C   0  0  0  0  0  0  0  0  0  0  0  0
    5.2412   -0.8449    0.6734 C   0  0  0  0  0  0  0  0  0  0  0  0
  1  2  2  0
  2  3  1  0
  3  4  1  0
  4  5  1  0
  5  6  1  0
  6  7  1  0
  7  5  1  0
  6  8  1  0
  6  9  1  0
  2 10  1  0
 10 11  1  0
 11 12  1  0
 12 13  2  0
 12 14  1  0
 10 15  1  0
 15 16  1  0
 16 17  2  0
 17 18  1  0
 18 19  2  0
 19 20  1  0
 19 21  1  0
 21 22  2  0
 22 16  1  0
M  END
$$$$
s_11a____13797774____12624296
     RDKit          3D

 21 21  0  0  0  0  0  0  0  0999 V2000
   -1.5369    1.3427    6.0190 Br  0  0  0  0  0  0  0  0  0  0  0  0
   -0.6612    2.4687    4.6751 C   0  0  0  0  0  0  0  0  0  0  0  0
   -0.5300    2.0066    3.3702 C   0  0  0  0  0  0  0  0  0  0  0  0
    0.0948    2.8177    2.4279 C   0  0  0  0  0  0  0  0  0  0  0  0
    0.5841    4.0724    2.7748 C   0  0  0  0  0  0  0  0  0  0  0  0
    0.4430    4.5149    4.0860 C   0  0  0  0  0  0  0  0  0  0  0  0
   -0.1785    3.7200    5.0434 C   0  0  0  0  0  0  0  0  0  0  0  0
    0.2400    2.3164    1.0000 C   0  0  0  0  0  0  0  0  0  0  0  0
   -1.0928    2.1127    0.4143 N   0  0  0  0  0  0  0  0  0  0  0  0
   -1.4622    2.8089   -0.7063 C   0  0  0  0  0  0  0  0  0  0  0  0
   -0.6978    3.5849   -1.2097 O   0  0  0  0  0  0  0  0  0  0  0  0
   -2.8404    2.5982   -1.3120 C   0  0  0  0  0  0  0  0  0  0  0  0
    1.0000    1.0000    1.0000 C   0  0  0  0  0  0  0  0  0  0  0  0
    0.4000   -0.0392    1.0000 O   0  0  0  0  0  0  0  0  0  0  0  0
    2.3700    1.0000    1.0000 N   0  0  0  0  0  0  0  0  0  0  0  0
    3.1050   -0.2682    0.8890 C   0  0  0  0  0  0  0  0  0  0  0  0
    3.9789   -0.2403   -0.3543 C   0  0  0  0  0  0  0  0  0  0  0  0
    4.7389   -1.5516   -0.4691 C   0  0  0  0  0  0  0  0  0  0  0  0
    5.3089   -2.5351   -0.5551 N   0  0  0  0  0  0  0  0  0  0  0  0
    3.9789   -0.4566    2.1184 C   0  0  0  0  0  0  0  0  0  0  0  0
    3.1050    2.2682    1.1110 C   0  0  0  0  0  0  0  0  0  0  0  0
  1  2  1  0
  2  3  2  0
  3  4  1  0
  4  5  2  0
  5  6  1  0
  6  7  2  0
  7  2  1  0
  4  8  1  0
  8  9  1  0
  9 10  1  0
 10 11  2  0
 10 12  1  0
  8 13  1  0
 13 14  2  0
 13 15  1  0
 15 16  1  0
 16 17  1  0
 17 18  1  0
 18 19  3  0
 16 20  1  0
 15 21  1  0
M  END
$$$$
s_11a____5904666____548058
     RDKit          3D

 26 27  0  0  0  0  0  0  0  0999 V2000
   -0.0617    2.8389    2.7065 S   0  0  0  0  0  0  0  0  0  0  0  0
   -0.9516    4.3803    2.3775 C   0  0  0  0  0  0  0  0  0  0  0  0
   -1.3309    5.0373    3.6947 C   0  0  0  0  0  0  0  0  0  0  0  0
   -0.0608    5.3195    1.5808 C   0  0  0  0  0  0  0  0  0  0  0  0
    0.2400    2.3164    1.0000 C   0  0  0  0  0  0  0  0  0  0  0  0
    1.0000    1.0000    1.0000 C   0  0  0  0  0  0  0  0  0  0  0  0
    0.4000   -0.0392    1.0000 O   0  0  0  0  0  0  0  0  0  0  0  0
    2.3700    1.0000    1.0000 N   0  0  0  0  0  0  0  0  0  0  0  0
    3.1050    2.2731    1.0000 C   0  0  0  0  0  0  0  0  0  0  0  0
    4.2359    2.2052    2.0133 C   0  0  0  0  0  0  0  0  0  0  0  0
    4.8494    1.1844    2.1603 O   0  0  0  0  0  0  0  0  0  0  0  0
    4.5548    3.3094    2.7589 N   0  0  0  0  0  0  0  0  0  0  0  0
    5.8721    3.5057    3.1912 C   0  0  0  0  0  0  0  0  0  0  0  0
    6.2790    2.9879    4.4167 C   0  0  0  0  0  0  0  0  0  0  0  0
    7.5885    3.1848    4.8427 C   0  0  0  0  0  0  0  0  0  0  0  0
    8.4798    3.8947    4.0454 C   0  0  0  0  0  0  0  0  0  0  0  0
    8.0621    4.4074    2.8218 C   0  0  0  0  0  0  0  0  0  0  0  0
    6.7551    4.2169    2.3855 C   0  0  0  0  0  0  0  0  0  0  0  0
    3.5142    4.2882    3.1049 C   0  0  0  0  0  0  0  0  0  0  0  0
    3.6795    2.5264   -0.3842 C   0  0  0  0  0  0  0  0  0  0  0  0
    2.6721    3.3031   -1.2167 C   0  0  0  0  0  0  0  0  0  0  0  0
    1.7361    2.6164   -1.9831 C   0  0  0  0  0  0  0  0  0  0  0  0
    0.8166    3.3310   -2.7440 C   0  0  0  0  0  0  0  0  0  0  0  0
    0.8367    4.7217   -2.7338 C   0  0  0  0  0  0  0  0  0  0  0  0
    1.7758    5.3970   -1.9641 C   0  0  0  0  0  0  0  0  0  0  0  0
    2.7010    4.6940   -1.1994 C   0  0  0  0  0  0  0  0  0  0  0  0
  1  2  1  0
  2  3  1  0
  2  4  1  0
  1  5  1  0
  5  6  1  0
  6  7  2  0
  6  8  1  0
  8  9  1  0
  9 10  1  0
 10 11  2  0
 10 12  1  0
 12 13  1  0
 13 14  2  0
 14 15  1  0
 15 16  2  0
 16 17  1  0
 17 18  2  0
 18 13  1  0
 12 19  1  0
  9 20  1  0
 20 21  1  0
 21 22  2  0
 22 23  1  0
 23 24  2  0
 24 25  1  0
 25 26  2  0
 26 21  1  0
M  END
$$$$
s_22____15151066____16726278
     RDKit          3D

 21 21  0  0  0  0  0  0  0  0999 V2000
   -5.9108   -1.4239    0.8539 F   0  0  0  0  0  0  0  0  0  0  0  0
   -5.2462   -0.8490    1.8518 C   0  0  0  0  0  0  0  0  0  0  0  0
   -3.8557   -0.8493    1.8495 C   0  0  0  0  0  0  0  0  0  0  0  0
   -3.1811   -0.2411    2.9030 C   0  0  0  0  0  0  0  0  0  0  0  0
   -3.8740    0.3619    3.9479 C   0  0  0  0  0  0  0  0  0  0  0  0
   -5.2651    0.3566    3.9383 C   0  0  0  0  0  0  0  0  0  0  0  0
   -5.9513   -0.2497    2.8905 C   0  0  0  0  0  0  0  0  0  0  0  0
   -1.6617   -0.2411    2.9030 C   0  0  0  0  0  0  0  0  0  0  0  0
   -1.1550    1.0000    2.1865 C   0  0  0  0  0  0  0  0  0  0  0  0
    0.3150    1.0000    2.1865 N   0  0  0  0  0  0  0  0  0  0  0  0
    1.0000    1.0000    1.0000 C   0  0  0  0  0  0  0  0  0  0  0  0
    0.4000    1.0000   -0.0392 O   0  0  0  0  0  0  0  0  0  0  0  0
    2.5200    1.0000    1.0000 C   0  0  0  0  0  0  0  0  0  0  0  0
    3.0267    1.0000   -0.4331 C   0  0  0  0  0  0  0  0  0  0  0  0
    4.5467    1.0000   -0.4331 C   0  0  0  0  0  0  0  0  0  0  0  0
    5.1967    0.0250   -0.9960 C   0  0  0  0  0  0  0  0  0  0  0  0
    4.4367   -1.1150   -1.6542 C   0  0  0  0  0  0  0  0  0  0  0  0
   -1.6617    2.2411    2.9030 C   0  0  0  0  0  0  0  0  0  0  0  0
   -2.6122    2.8352    2.4746 O   0  0  0  0  0  0  0  0  0  0  0  0
   -1.0606    2.6621    3.9881 O   0  0  0  0  0  0  0  0  0  0  0  0
   -1.5340    3.8216    4.6575 C   0  0  0  0  0  0  0  0  0  0  0  0
  1  2  1  0
  2  3  2  0
  3  4  1  0
  4  5  2  0
  5  6  1  0
  6  7  2  0
  7  2  1  0
  4  8  1  0
  8  9  1  0
  9 10  1  0
 10 11  1  0
 11 12  2  0
 11 13  1  0
 13 14  1  0
 14 15  1  0
 15 16  2  0
 16 17  1  0
  9 18  1  0
 18 19  2  0
 18 20  1  0
 20 21  1  0
M  END
$$$$
s_11a____12914660____17512238
     RDKit          3D

 21 21  0  0  0  0  0  0  0  0999 V2000
    0.4000   -0.0392    1.0000 O   0  0  0  0  0  0  0  0  0  0  0  0
    1.0000    1.0000    1.0000 C   0  0  0  0  0  0  0  0  0  0  0  0
    2.3700    1.0000    1.0000 N   0  0  0  0  0  0  0  0  0  0  0  0
    3.1050   -0.2682    0.8890 C   0  0  0  0  0  0  0  0  0  0  0  0
    3.9789   -0.2403   -0.3543 C   0  0  0  0  0  0  0  0  0  0  0  0
    4.6889   -1.4653   -0.4615 O   0  0  0  0  0  0  0  0  0  0  0  0
    5.5052   -1.4392   -1.6231 C   0  0  0  0  0  0  0  0  0  0  0  0
    3.9789   -0.4566    2.1184 C   0  0  0  0  0  0  0  0  0  0  0  0
    3.1050    2.2682    1.1110 C   0  0  0  0  0  0  0  0  0  0  0  0
    0.2400    2.3164    1.0000 C   0  0  0  0  0  0  0  0  0  0  0  0
   -0.9572    2.1909    0.1563 N   0  0  0  0  0  0  0  0  0  0  0  0
   -1.1172    3.0081   -0.9316 C   0  0  0  0  0  0  0  0  0  0  0  0
   -0.2800    3.8262   -1.1959 O   0  0  0  0  0  0  0  0  0  0  0  0
   -2.3551    2.8784   -1.8040 C   0  0  0  0  0  0  0  0  0  0  0  0
   -0.1753    2.6616    2.4208 C   0  0  0  0  0  0  0  0  0  0  0  0
   -0.5958    4.1212    2.4854 C   0  0  0  0  0  0  0  0  0  0  0  0
   -1.9241    4.4663    2.2589 C   0  0  0  0  0  0  0  0  0  0  0  0
   -2.3044    5.8031    2.3181 C   0  0  0  0  0  0  0  0  0  0  0  0
   -1.3595    6.7831    2.6034 C   0  0  0  0  0  0  0  0  0  0  0  0
   -0.0355    6.4266    2.8283 C   0  0  0  0  0  0  0  0  0  0  0  0
    0.3575    5.0934    2.7713 C   0  0  0  0  0  0  0  0  0  0  0  0
  1  2  2  0
  2  3  1  0
  3  4  1  0
  4  5  1  0
  5  6  1  0
  6  7  1  0
  4  8  1  0
  3  9  1  0
  2 10  1  0
 10 11  1  0
 11 12  1  0
 12 13  2  0
 12 14  1  0
 10 15  1  0
 15 16  1  0
 16 17  2  0
 17 18  1  0
 18 19  2  0
 19 20  1  0
 20 21  2  0
 21 16  1  0
M  END
$$$$
s_22____8741158____10687876
     RDKit          3D

 23 24  0  0  0  0  0  0  0  0999 V2000
    3.6124    1.9345    4.8634 S   0  0  0  0  0  0  0  0  0  0  0  0
    4.7778    3.0999    5.6248 C   0  0  0  0  0  0  0  0  0  0  0  0
    4.4933    4.5694    5.5145 C   0  0  0  0  0  0  0  0  0  0  0  0
    5.6251    3.9654    4.7375 C   0  0  0  0  0  0  0  0  0  0  0  0
    3.9607    2.2828    3.1218 C   0  0  0  0  0  0  0  0  0  0  0  0
    3.0831    1.4052    2.2442 C   0  0  0  0  0  0  0  0  0  0  0  0
    3.4716    0.3240    1.8978 O   0  0  0  0  0  0  0  0  0  0  0  0
    1.8487    1.8487    1.8487 N   0  0  0  0  0  0  0  0  0  0  0  0
    1.0000    1.0000    1.0000 C   0  0  0  0  0  0  0  0  0  0  0  0
    0.7075    1.7208   -0.3059 C   0  0  0  0  0  0  0  0  0  0  0  0
   -0.3868    1.6571   -0.7943 O   0  0  0  0  0  0  0  0  0  0  0  0
    1.6499    2.4116   -0.8981 O   0  0  0  0  0  0  0  0  0  0  0  0
    1.3766    3.0850   -2.1180 C   0  0  0  0  0  0  0  0  0  0  0  0
    0.8842    4.4920   -1.8208 C   0  0  0  0  0  0  0  0  0  0  0  0
   -0.3059    0.7075    1.7208 C   0  0  0  0  0  0  0  0  0  0  0  0
   -0.0134   -0.0131    3.0262 C   0  0  0  0  0  0  0  0  0  0  0  0
    0.1940    0.7312    4.1821 C   0  0  0  0  0  0  0  0  0  0  0  0
    0.4603    0.0621    5.3719 C   0  0  0  0  0  0  0  0  0  0  0  0
    0.6637    0.7694    6.5036 O   0  0  0  0  0  0  0  0  0  0  0  0
    0.5169   -1.3277    5.3998 C   0  0  0  0  0  0  0  0  0  0  0  0
    0.7761   -1.9599    6.5648 O   0  0  0  0  0  0  0  0  0  0  0  0
    0.3086   -2.0691    4.2404 C   0  0  0  0  0  0  0  0  0  0  0  0
    0.0418   -1.4021    3.0482 C   0  0  0  0  0  0  0  0  0  0  0  0
  1  2  1  0
  2  3  1  0
  3  4  1  0
  4  2  1  0
  1  5  1  0
  5  6  1  0
  6  7  2  0
  6  8  1  0
  8  9  1  0
  9 10  1  0
 10 11  2  0
 10 12  1  0
 12 13  1  0
 13 14  1  0
  9 15  1  0
 15 16  1  0
 16 17  2  0
 17 18  1  0
 18 19  1  0
 18 20  2  0
 20 21  1  0
 20 22  1  0
 22 23  2  0
 23 16  1  0
M  END
$$$$
s_22____12890560____7841202
     RDKit          3D

 19 19  0  0  0  0  0  0  0  0999 V2000
   -3.5217   -0.4331    2.1865 S   0  0  0  0  0  0  0  0  0  0  0  0
   -1.7117   -0.4331    2.1865 C   0  0  0  0  0  0  0  0  0  0  0  0
   -1.2050    1.0000    2.1865 C   0  0  0  0  0  0  0  0  0  0  0  0
    0.3150    1.0000    2.1865 C   0  0  0  0  0  0  0  0  0  0  0  0
    0.9150    1.0000    3.2257 O   0  0  0  0  0  0  0  0  0  0  0  0
    1.0000    1.0000    1.0000 N   0  0  0  0  0  0  0  0  0  0  0  0
    2.4700    1.0000    1.0000 C   0  0  0  0  0  0  0  0  0  0  0  0
    2.9767   -0.4331    1.0000 C   0  0  0  0  0  0  0  0  0  0  0  0
    4.4971   -0.4331    1.0000 C   0  0  0  0  0  0  0  0  0  0  0  0
    5.1806   -0.4331    2.2119 C   0  0  0  0  0  0  0  0  0  0  0  0
    6.5713   -0.4333    2.2059 C   0  0  0  0  0  0  0  0  0  0  0  0
    7.2684   -0.4342    1.0011 C   0  0  0  0  0  0  0  0  0  0  0  0
    8.6884   -0.4349    1.0024 O   0  0  0  0  0  0  0  0  0  0  0  0
    6.5757   -0.4354   -0.2059 C   0  0  0  0  0  0  0  0  0  0  0  0
    5.1843   -0.4342   -0.2096 C   0  0  0  0  0  0  0  0  0  0  0  0
    7.3300   -0.4332    3.5230 C   0  0  0  0  0  0  0  0  0  0  0  0
    7.5670    0.9056    3.9326 O   0  0  0  0  0  0  0  0  0  0  0  0
   -1.2050   -1.1496    0.9454 C   0  0  0  0  0  0  0  0  0  0  0  0
   -3.8048   -2.2208    2.1865 C   0  0  0  0  0  0  0  0  0  0  0  0
  1  2  1  0
  2  3  1  0
  3  4  1  0
  4  5  2  0
  4  6  1  0
  6  7  1  0
  7  8  1  0
  8  9  1  0
  9 10  2  0
 10 11  1  0
 11 12  2  0
 12 13  1  0
 12 14  1  0
 14 15  2  0
 15  9  1  0
 11 16  1  0
 16 17  1  0
  2 18  1  0
  1 19  1  0
M  END
$$$$
s_22____12853234____60463
     RDKit          3D

 26 26  0  0  0  0  0  0  0  0999 V2000
   -1.8083   -0.7065    2.1865 S   0  0  0  0  0  0  0  0  0  0  0  0
   -3.5882   -0.3775    2.1865 C   0  0  0  0  0  0  0  0  0  0  0  0
   -4.3469   -1.6947    2.1865 C   0  0  0  0  0  0  0  0  0  0  0  0
   -3.9562    0.4192    3.4275 C   0  0  0  0  0  0  0  0  0  0  0  0
   -3.9562    0.4192    0.9454 C   0  0  0  0  0  0  0  0  0  0  0  0
   -1.2050    1.0000    2.1865 C   0  0  0  0  0  0  0  0  0  0  0  0
    0.3150    1.0000    2.1865 C   0  0  0  0  0  0  0  0  0  0  0  0
    0.9150    1.0000    3.2257 O   0  0  0  0  0  0  0  0  0  0  0  0
    1.0000    1.0000    1.0000 N   0  0  0  0  0  0  0  0  0  0  0  0
    2.4700    1.0000    1.0000 C   0  0  0  0  0  0  0  0  0  0  0  0
    2.9767    2.2411    0.2835 C   0  0  0  0  0  0  0  0  0  0  0  0
    3.9272    2.8352    0.7118 O   0  0  0  0  0  0  0  0  0  0  0  0
    2.3756    2.6621   -0.8017 O   0  0  0  0  0  0  0  0  0  0  0  0
    2.8490    3.8216   -1.4711 C   0  0  0  0  0  0  0  0  0  0  0  0
    2.9767   -0.2411    0.2835 C   0  0  0  0  0  0  0  0  0  0  0  0
    4.4967   -0.2411    0.2835 C   0  0  0  0  0  0  0  0  0  0  0  0
    5.1811   -0.8466    1.3322 C   0  0  0  0  0  0  0  0  0  0  0  0
    6.5719   -0.8497    1.3361 C   0  0  0  0  0  0  0  0  0  0  0  0
    7.2616   -0.2466    0.2890 C   0  0  0  0  0  0  0  0  0  0  0  0
    8.6114   -0.2470    0.2889 O   0  0  0  0  0  0  0  0  0  0  0  0
    9.3213   -1.3126   -0.3250 C   0  0  0  0  0  0  0  0  0  0  0  0
    9.0000   -1.3747   -1.6142 F   0  0  0  0  0  0  0  0  0  0  0  0
   10.6289   -1.1023   -0.2037 F   0  0  0  0  0  0  0  0  0  0  0  0
    8.9997   -2.4590    0.2677 F   0  0  0  0  0  0  0  0  0  0  0  0
    6.5820    0.3606   -0.7621 C   0  0  0  0  0  0  0  0  0  0  0  0
    5.1912    0.3604   -0.7611 C   0  0  0  0  0  0  0  0  0  0  0  0
  1  2  1  0
  2  3  1  0
  2  4  1  0
  2  5  1  0
  1  6  1  0
  6  7  1  0
  7  8  2  0
  7  9  1  0
  9 10  1  0
 10 11  1  0
 11 12  2  0
 11 13  1  0
 13 14  1  0
 10 15  1  0
 15 16  1  0
 16 17  2  0
 17 18  1  0
 18 19  2  0
 19 20  1  0
 20 21  1  0
 21 22  1  0
 21 23  1  0
 21 24  1  0
 19 25  1  0
 25 26  2  0
 26 16  1  0
M  END
$$$$
s_2708____7689054____6465960
     RDKit          3D

 20 20  0  0  0  0  0  0  0  0999 V2000
   -1.0583    3.2448    3.5082 S   0  0  0  0  0  0  0  0  0  0  0  0
   -1.6617    1.9376    2.4113 C   0  0  0  0  0  0  0  0  0  0  0  0
   -1.1550    2.1865    1.0000 C   0  0  0  0  0  0  0  0  0  0  0  0
    0.3150    2.1865    1.0000 N   0  0  0  0  0  0  0  0  0  0  0  0
    1.0000    1.0000    1.0000 C   0  0  0  0  0  0  0  0  0  0  0  0
    0.4000   -0.0392    1.0000 O   0  0  0  0  0  0  0  0  0  0  0  0
    2.3700    1.0000    1.0000 N   0  0  0  0  0  0  0  0  0  0  0  0
    3.1050   -0.2731    1.0000 C   0  0  0  0  0  0  0  0  0  0  0  0
    4.2359   -0.2052   -0.0133 C   0  0  0  0  0  0  0  0  0  0  0  0
    3.7113    0.1457   -1.2853 O   0  0  0  0  0  0  0  0  0  0  0  0
    3.3593   -1.0335   -1.9939 C   0  0  0  0  0  0  0  0  0  0  0  0
    3.6795   -0.5264    2.3842 C   0  0  0  0  0  0  0  0  0  0  0  0
    4.5913   -1.7421    2.3398 C   0  0  0  0  0  0  0  0  0  0  0  0
    5.9600   -1.5843    2.5315 C   0  0  0  0  0  0  0  0  0  0  0  0
    6.7908   -2.6992    2.4892 C   0  0  0  0  0  0  0  0  0  0  0  0
    6.2514   -3.9602    2.2578 C   0  0  0  0  0  0  0  0  0  0  0  0
    4.8827   -4.1059    2.0682 C   0  0  0  0  0  0  0  0  0  0  0  0
    4.0414   -2.9988    2.1075 C   0  0  0  0  0  0  0  0  0  0  0  0
   -3.1817    1.9376    2.4113 C   0  0  0  0  0  0  0  0  0  0  0  0
   -1.8067    2.6824    5.0573 C   0  0  0  0  0  0  0  0  0  0  0  0
  1  2  1  0
  2  3  1  0
  3  4  1  0
  4  5  1  0
  5  6  2  0
  5  7  1  0
  7  8  1  0
  8  9  1  0
  9 10  1  0
 10 11  1  0
  8 12  1  0
 12 13  1  0
 13 14  2  0
 14 15  1  0
 15 16  2  0
 16 17  1  0
 17 18  2  0
 18 13  1  0
  2 19  1  0
  1 20  1  0
M  END
$$$$
s_1458____17057112____8265150
     RDKit          3D

 24 24  0  0  0  0  0  0  0  0999 V2000
    0.4000    1.0000   -0.0392 O   0  0  0  0  0  0  0  0  0  0  0  0
    1.0000    1.0000    1.0000 C   0  0  0  0  0  0  0  0  0  0  0  0
    0.3450    1.0000    2.1345 O   0  0  0  0  0  0  0  0  0  0  0  0
   -1.0750    1.0000    2.1345 C   0  0  0  0  0  0  0  0  0  0  0  0
   -1.5817   -0.4331    2.1345 C   0  0  0  0  0  0  0  0  0  0  0  0
   -2.3291   -0.8583    1.1595 C   0  0  0  0  0  0  0  0  0  0  0  0
   -1.2145   -1.3690    3.2745 C   0  0  0  0  0  0  0  0  0  0  0  0
   -1.7297   -0.7974    4.5853 C   0  0  0  0  0  0  0  0  0  0  0  0
    2.5200    1.0000    1.0000 C   0  0  0  0  0  0  0  0  0  0  0  0
    3.0100    1.0000   -0.3859 N   0  0  0  0  0  0  0  0  0  0  0  0
    3.7976   -0.0275   -0.8340 C   0  0  0  0  0  0  0  0  0  0  0  0
    4.0138   -0.9711   -0.1248 O   0  0  0  0  0  0  0  0  0  0  0  0
    4.3977    0.0277   -2.2295 C   0  0  0  0  0  0  0  0  0  0  0  0
    4.8450   -1.3646   -2.6441 C   0  0  0  0  0  0  0  0  0  0  0  0
    3.6531   -2.1413   -3.1792 C   0  0  0  0  0  0  0  0  0  0  0  0
    5.9057   -1.2544   -3.7273 C   0  0  0  0  0  0  0  0  0  0  0  0
    3.0267    2.2411    1.7165 C   0  0  0  0  0  0  0  0  0  0  0  0
    4.5467    2.2411    1.7165 C   0  0  0  0  0  0  0  0  0  0  0  0
    5.2311    1.6356    2.7653 C   0  0  0  0  0  0  0  0  0  0  0  0
    6.6219    1.6325    2.7691 C   0  0  0  0  0  0  0  0  0  0  0  0
    7.3116    2.2356    1.7220 C   0  0  0  0  0  0  0  0  0  0  0  0
    8.6614    2.2352    1.7220 O   0  0  0  0  0  0  0  0  0  0  0  0
    6.6320    2.8428    0.6710 C   0  0  0  0  0  0  0  0  0  0  0  0
    5.2412    2.8426    0.6720 C   0  0  0  0  0  0  0  0  0  0  0  0
  1  2  2  0
  2  3  1  0
  3  4  1  0
  4  5  1  0
  5  6  2  0
  5  7  1  0
  7  8  1  0
  2  9  1  0
  9 10  1  0
 10 11  1  0
 11 12  2  0
 11 13  1  0
 13 14  1  0
 14 15  1  0
 14 16  1  0
  9 17  1  0
 17 18  1  0
 18 19  2  0
 19 20  1  0
 20 21  2  0
 21 22  1  0
 21 23  1  0
 23 24  2  0
 24 18  1  0
M  END
$$$$
s_22____9982722____17513450
     RDKit          3D

 23 25  0  0  0  0  0  0  0  0999 V2000
    0.4711    2.1500   -0.9930 O   0  0  0  0  0  0  0  0  0  0  0  0
    0.1224    1.8776    0.1224 C   0  0  0  0  0  0  0  0  0  0  0  0
   -1.0918    2.3677    0.6152 N   0  0  0  0  0  0  0  0  0  0  0  0
   -1.7861    3.4837    0.1611 C   0  0  0  0  0  0  0  0  0  0  0  0
   -2.6258    3.8995    1.1162 N   0  0  0  0  0  0  0  0  0  0  0  0
   -3.3123    4.9284    0.6873 N   0  0  0  0  0  0  0  0  0  0  0  0
   -2.9373    5.2447   -0.5317 C   0  0  0  0  0  0  0  0  0  0  0  0
   -1.9423    4.3171   -0.9028 C   0  0  0  0  0  0  0  0  0  0  0  0
   -2.4615    3.0618    2.3048 C   0  0  0  0  0  0  0  0  0  0  0  0
   -1.8514    1.8046    1.7291 C   0  0  0  0  0  0  0  0  0  0  0  0
    1.0000    1.0000    1.0000 C   0  0  0  0  0  0  0  0  0  0  0  0
    1.8487    0.1513    0.1513 N   0  0  0  0  0  0  0  0  0  0  0  0
    1.7598   -1.2129    0.2402 C   0  0  0  0  0  0  0  0  0  0  0  0
    0.9891   -1.7150    1.0109 O   0  0  0  0  0  0  0  0  0  0  0  0
    2.6374   -2.0905   -0.6374 C   0  0  0  0  0  0  0  0  0  0  0  0
    1.8776    1.8776    1.8776 C   0  0  0  0  0  0  0  0  0  0  0  0
    2.8824    1.0100    2.6179 C   0  0  0  0  0  0  0  0  0  0  0  0
    2.5504    0.4903    3.8647 C   0  0  0  0  0  0  0  0  0  0  0  0
    3.4664   -0.3047    4.5455 C   0  0  0  0  0  0  0  0  0  0  0  0
    4.7046   -0.5705    3.9693 C   0  0  0  0  0  0  0  0  0  0  0  0
    5.5967   -1.3413    4.6266 O   0  0  0  0  0  0  0  0  0  0  0  0
    5.0418   -0.0530    2.7228 C   0  0  0  0  0  0  0  0  0  0  0  0
    4.1218    0.7410    2.0463 C   0  0  0  0  0  0  0  0  0  0  0  0
  1  2  2  0
  2  3  1  0
  3  4  1  0
  4  5  1  0
  5  6  1  0
  6  7  2  0
  7  8  1  0
  4  8  2  0
  5  9  1  0
  9 10  1  0
 10  3  1  0
  2 11  1  0
 11 12  1  0
 12 13  1  0
 13 14  2  0
 13 15  1  0
 11 16  1  0
 16 17  1  0
 17 18  2  0
 18 19  1  0
 19 20  2  0
 20 21  1  0
 20 22  1  0
 22 23  2  0
 23 17  1  0
M  END
$$$$
s_22____9283054____1055140
     RDKit          3D

 21 21  0  0  0  0  0  0  0  0999 V2000
    3.1233    1.0000   -0.7065 S   0  0  0  0  0  0  0  0  0  0  0  0
    2.5200    1.0000    1.0000 C   0  0  0  0  0  0  0  0  0  0  0  0
    1.0000    1.0000    1.0000 C   0  0  0  0  0  0  0  0  0  0  0  0
    0.4000    1.0000   -0.0392 O   0  0  0  0  0  0  0  0  0  0  0  0
    0.3150    1.0000    2.1865 N   0  0  0  0  0  0  0  0  0  0  0  0
    1.0500    1.0000    3.4595 C   0  0  0  0  0  0  0  0  0  0  0  0
    0.0623    1.0000    4.6148 C   0  0  0  0  0  0  0  0  0  0  0  0
    0.8223    1.0000    5.9312 C   0  0  0  0  0  0  0  0  0  0  0  0
    1.5026    2.2369    6.0849 O   0  0  0  0  0  0  0  0  0  0  0  0
    1.8311   -0.1369    5.9338 C   0  0  0  0  0  0  0  0  0  0  0  0
   -0.8116    2.2411    4.5343 C   0  0  0  0  0  0  0  0  0  0  0  0
   -2.1780    1.9382    5.1281 C   0  0  0  0  0  0  0  0  0  0  0  0
   -2.3242    1.8449    6.5083 C   0  0  0  0  0  0  0  0  0  0  0  0
   -3.5760    1.5668    7.0475 C   0  0  0  0  0  0  0  0  0  0  0  0
   -4.6702    1.3855    6.2080 C   0  0  0  0  0  0  0  0  0  0  0  0
   -4.5124    1.4814    4.8309 C   0  0  0  0  0  0  0  0  0  0  0  0
   -3.2657    1.7584    4.2795 C   0  0  0  0  0  0  0  0  0  0  0  0
   -0.8116   -0.2411    4.5343 C   0  0  0  0  0  0  0  0  0  0  0  0
    4.9032    1.0000   -0.3775 C   0  0  0  0  0  0  0  0  0  0  0  0
    5.6619    1.0000   -1.6947 C   0  0  0  0  0  0  0  0  0  0  0  0
    7.1566    1.0000   -1.4184 C   0  0  0  0  0  0  0  0  0  0  0  0
  1  2  1  0
  2  3  1  0
  3  4  2  0
  3  5  1  0
  5  6  1  0
  6  7  1  0
  7  8  1  0
  8  9  1  0
  8 10  1  0
  7 11  1  0
 11 12  1  0
 12 13  2  0
 13 14  1  0
 14 15  2  0
 15 16  1  0
 16 17  2  0
 17 12  1  0
  7 18  1  0
  1 19  1  0
 19 20  1  0
 20 21  1  0
M  END
$$$$
s_2708____11569280____13040476
     RDKit          3D

 24 24  0  0  0  0  0  0  0  0999 V2000
   -2.0570    4.8408   -5.9516 F   0  0  0  0  0  0  0  0  0  0  0  0
   -1.8456    4.5384   -4.6735 C   0  0  0  0  0  0  0  0  0  0  0  0
   -2.0804    3.2443   -4.2206 C   0  0  0  0  0  0  0  0  0  0  0  0
   -1.8579    2.9358   -2.8825 C   0  0  0  0  0  0  0  0  0  0  0  0
   -1.4039    3.9233   -2.0146 C   0  0  0  0  0  0  0  0  0  0  0  0
   -1.1703    5.2153   -2.4730 C   0  0  0  0  0  0  0  0  0  0  0  0
   -1.3906    5.5295   -3.8099 C   0  0  0  0  0  0  0  0  0  0  0  0
   -1.1630    3.5798   -0.5538 C   0  0  0  0  0  0  0  0  0  0  0  0
    0.1198    2.7743   -0.4276 C   0  0  0  0  0  0  0  0  0  0  0  0
    1.3078    3.6552   -0.7786 C   0  0  0  0  0  0  0  0  0  0  0  0
    1.5260    4.6494   -0.1431 O   0  0  0  0  0  0  0  0  0  0  0  0
    2.1294    3.3141   -1.8205 N   0  0  0  0  0  0  0  0  0  0  0  0
    3.2117    4.2205   -2.2302 C   0  0  0  0  0  0  0  0  0  0  0  0
    1.9285    2.0417   -2.5287 C   0  0  0  0  0  0  0  0  0  0  0  0
    0.2650    2.2731    1.0000 C   0  0  0  0  0  0  0  0  0  0  0  0
    1.0000    1.0000    1.0000 N   0  0  0  0  0  0  0  0  0  0  0  0
    2.3700    1.0000    1.0000 C   0  0  0  0  0  0  0  0  0  0  0  0
    2.9700    2.0353    1.0906 O   0  0  0  0  0  0  0  0  0  0  0  0
    3.0550   -0.1819    0.8966 N   0  0  0  0  0  0  0  0  0  0  0  0
    4.5250   -0.1819    0.8966 C   0  0  0  0  0  0  0  0  0  0  0  0
    5.0317   -0.3068    2.3242 C   0  0  0  0  0  0  0  0  0  0  0  0
    6.5517   -0.3068    2.3242 C   0  0  0  0  0  0  0  0  0  0  0  0
    6.9950   -0.4161    3.5734 F   0  0  0  0  0  0  0  0  0  0  0  0
    2.3200   -1.4502    0.7856 C   0  0  0  0  0  0  0  0  0  0  0  0
  1  2  1  0
  2  3  2  0
  3  4  1  0
  4  5  2  0
  5  6  1  0
  6  7  2  0
  7  2  1  0
  5  8  1  0
  8  9  1  0
  9 10  1  0
 10 11  2  0
 10 12  1  0
 12 13  1  0
 12 14  1  0
  9 15  1  0
 15 16  1  0
 16 17  1  0
 17 18  2  0
 17 19  1  0
 19 20  1  0
 20 21  1  0
 21 22  1  0
 22 23  1  0
 19 24  1  0
M  END
$$$$
s_22____14182010____7841202
     RDKit          3D

 20 20  0  0  0  0  0  0  0  0999 V2000
   -1.3087    4.7396    6.5815 Br  0  0  0  0  0  0  0  0  0  0  0  0
    0.1140    4.1241    5.3817 C   0  0  0  0  0  0  0  0  0  0  0  0
    1.1593    4.9788    5.0459 C   0  0  0  0  0  0  0  0  0  0  0  0
    1.1846    6.2120    5.5432 F   0  0  0  0  0  0  0  0  0  0  0  0
    2.1713    4.5448    4.1954 C   0  0  0  0  0  0  0  0  0  0  0  0
    2.1391    3.2539    3.6775 C   0  0  0  0  0  0  0  0  0  0  0  0
    1.0878    2.4107    4.0225 C   0  0  0  0  0  0  0  0  0  0  0  0
    0.0696    2.8306    4.8717 C   0  0  0  0  0  0  0  0  0  0  0  0
    1.0500    1.0000    3.4595 C   0  0  0  0  0  0  0  0  0  0  0  0
    0.3150    1.0000    2.1865 N   0  0  0  0  0  0  0  0  0  0  0  0
    1.0000    1.0000    1.0000 C   0  0  0  0  0  0  0  0  0  0  0  0
    0.4000    1.0000   -0.0392 O   0  0  0  0  0  0  0  0  0  0  0  0
    2.5200    1.0000    1.0000 C   0  0  0  0  0  0  0  0  0  0  0  0
    3.0267    1.2488   -0.4113 C   0  0  0  0  0  0  0  0  0  0  0  0
    3.0178    3.0267   -0.7508 S   0  0  0  0  0  0  0  0  0  0  0  0
    3.6515    2.9944   -2.4459 C   0  0  0  0  0  0  0  0  0  0  0  0
    4.4438    0.7151   -0.5423 C   0  0  0  0  0  0  0  0  0  0  0  0
   -1.1550    1.0000    2.1865 C   0  0  0  0  0  0  0  0  0  0  0  0
   -1.6617   -0.4331    2.1865 C   0  0  0  0  0  0  0  0  0  0  0  0
   -3.0817   -0.4331    2.1865 O   0  0  0  0  0  0  0  0  0  0  0  0
  1  2  1  0
  2  3  2  0
  3  4  1  0
  3  5  1  0
  5  6  2  0
  6  7  1  0
  7  8  2  0
  8  2  1  0
  7  9  1  0
  9 10  1  0
 10 11  1  0
 11 12  2  0
 11 13  1  0
 13 14  1  0
 14 15  1  0
 15 16  1  0
 14 17  1  0
 10 18  1  0
 18 19  1  0
 19 20  1  0
M  END
$$$$
s_34____15258682____2692240
     RDKit          3D

 18 18  0  0  0  0  0  0  0  0999 V2000
    4.5195   -4.9349   -0.4506 O   0  0  0  0  0  0  0  0  0  0  0  0
    4.3181   -4.3658   -1.4877 C   0  0  0  0  0  0  0  0  0  0  0  0
    3.8611   -3.0743   -1.4828 N   0  0  0  0  0  0  0  0  0  0  0  0
    3.6174   -2.3856   -0.2072 C   0  0  0  0  0  0  0  0  0  0  0  0
    3.1534   -1.0744   -0.2132 C   0  0  0  0  0  0  0  0  0  0  0  0
    2.9267   -0.4332    1.0000 C   0  0  0  0  0  0  0  0  0  0  0  0
    3.1578   -1.0845    2.2070 C   0  0  0  0  0  0  0  0  0  0  0  0
    3.6216   -2.3961    2.1881 C   0  0  0  0  0  0  0  0  0  0  0  0
    3.8552   -3.0570    0.9872 C   0  0  0  0  0  0  0  0  0  0  0  0
    2.4200    1.0000    1.0000 C   0  0  0  0  0  0  0  0  0  0  0  0
    1.0000    1.0000    1.0000 O   0  0  0  0  0  0  0  0  0  0  0  0
    0.2850    1.0000    2.2384 N   0  0  0  0  0  0  0  0  0  0  0  0
   -0.9650    1.0000    2.2384 C   0  0  0  0  0  0  0  0  0  0  0  0
   -1.7250    1.0000    3.5548 C   0  0  0  0  0  0  0  0  0  0  0  0
   -1.9783    2.4331    3.9936 C   0  0  0  0  0  0  0  0  0  0  0  0
   -2.7383    2.4331    5.3099 C   0  0  0  0  0  0  0  0  0  0  0  0
   -1.7250    1.0000    0.9221 C   0  0  0  0  0  0  0  0  0  0  0  0
    4.5702   -5.0778   -2.8067 C   0  0  0  0  0  0  0  0  0  0  0  0
  1  2  2  0
  2  3  1  0
  3  4  1  0
  4  5  2  0
  5  6  1  0
  6  7  2  0
  7  8  1  0
  8  9  2  0
  9  4  1  0
  6 10  1  0
 10 11  1  0
 11 12  1  0
 12 13  2  0
 13 14  1  0
 14 15  1  0
 15 16  1  0
 13 17  1  0
  2 18  1  0
M  END
$$$$
s_34____15258682____14428370
     RDKit          3D

 18 18  0  0  0  0  0  0  0  0999 V2000
    4.2567   -0.4113    1.2488 F   0  0  0  0  0  0  0  0  0  0  0  0
    2.9267   -0.4113    1.2488 C   0  0  0  0  0  0  0  0  0  0  0  0
    2.4202   -1.3321    0.1515 C   0  0  0  0  0  0  0  0  0  0  0  0
    1.6219   -2.4177    0.4967 C   0  0  0  0  0  0  0  0  0  0  0  0
    1.1587   -3.2587   -0.5091 C   0  0  0  0  0  0  0  0  0  0  0  0
    0.3837   -4.3183   -0.1962 O   0  0  0  0  0  0  0  0  0  0  0  0
   -0.0905   -5.1786   -1.2216 C   0  0  0  0  0  0  0  0  0  0  0  0
    1.4887   -3.0186   -1.8390 C   0  0  0  0  0  0  0  0  0  0  0  0
    2.2891   -1.9300   -2.1717 C   0  0  0  0  0  0  0  0  0  0  0  0
    2.7577   -1.0808   -1.1746 C   0  0  0  0  0  0  0  0  0  0  0  0
    2.4200    1.0000    1.0000 C   0  0  0  0  0  0  0  0  0  0  0  0
    1.0000    1.0000    1.0000 O   0  0  0  0  0  0  0  0  0  0  0  0
    0.2850    1.0000    2.2384 N   0  0  0  0  0  0  0  0  0  0  0  0
   -0.9650    1.0000    2.2384 C   0  0  0  0  0  0  0  0  0  0  0  0
   -1.7250    2.3164    2.2384 C   0  0  0  0  0  0  0  0  0  0  0  0
   -2.5989    2.3969    0.9973 C   0  0  0  0  0  0  0  0  0  0  0  0
   -3.3589    3.7132    0.9973 C   0  0  0  0  0  0  0  0  0  0  0  0
   -1.7250   -0.3164    2.2384 C   0  0  0  0  0  0  0  0  0  0  0  0
  1  2  1  0
  2  3  1  0
  3  4  2  0
  4  5  1  0
  5  6  1  0
  6  7  1  0
  5  8  2  0
  8  9  1  0
  9 10  2  0
 10  3  1  0
  2 11  1  0
 11 12  1  0
 12 13  1  0
 13 14  2  0
 14 15  1  0
 15 16  1  0
 16 17  1  0
 14 18  1  0
M  END
$$$$
s_22____11569248____12297758
     RDKit          3D

 25 25  0  0  0  0  0  0  0  0999 V2000
   -2.3030   -5.0235    2.4753 F   0  0  0  0  0  0  0  0  0  0  0  0
   -1.9995   -3.8191    2.9515 C   0  0  0  0  0  0  0  0  0  0  0  0
   -2.9952   -3.0256    3.5121 C   0  0  0  0  0  0  0  0  0  0  0  0
   -2.6704   -1.7667    4.0072 C   0  0  0  0  0  0  0  0  0  0  0  0
   -1.3562   -1.3171    3.9362 C   0  0  0  0  0  0  0  0  0  0  0  0
   -0.3647   -2.1148    3.3752 C   0  0  0  0  0  0  0  0  0  0  0  0
   -0.6835   -3.3744    2.8789 C   0  0  0  0  0  0  0  0  0  0  0  0
   -1.0081    0.0593    4.4787 C   0  0  0  0  0  0  0  0  0  0  0  0
   -1.6617    1.1249    3.6141 C   0  0  0  0  0  0  0  0  0  0  0  0
   -1.3135    2.5014    4.1567 C   0  0  0  0  0  0  0  0  0  0  0  0
   -0.1848    2.7517    4.4783 O   0  0  0  0  0  0  0  0  0  0  0  0
   -2.2883    3.4563    4.2785 N   0  0  0  0  0  0  0  0  0  0  0  0
   -1.9169    4.8640    4.4817 C   0  0  0  0  0  0  0  0  0  0  0  0
   -3.7056    3.0732    4.2061 C   0  0  0  0  0  0  0  0  0  0  0  0
   -1.1550    1.0000    2.1865 C   0  0  0  0  0  0  0  0  0  0  0  0
    0.3150    1.0000    2.1865 N   0  0  0  0  0  0  0  0  0  0  0  0
    1.0000    1.0000    1.0000 C   0  0  0  0  0  0  0  0  0  0  0  0
    0.4000    1.0000   -0.0392 O   0  0  0  0  0  0  0  0  0  0  0  0
    2.5200    1.0000    1.0000 C   0  0  0  0  0  0  0  0  0  0  0  0
    2.9933    1.0000   -0.3388 O   0  0  0  0  0  0  0  0  0  0  0  0
    3.0267   -0.2411    1.7165 C   0  0  0  0  0  0  0  0  0  0  0  0
    3.2433   -1.3347    1.0479 C   0  0  0  0  0  0  0  0  0  0  0  0
    3.7500   -2.5758    1.7645 C   0  0  0  0  0  0  0  0  0  0  0  0
    2.7488   -3.7060    1.5896 C   0  0  0  0  0  0  0  0  0  0  0  0
    3.2555   -4.9471    2.3062 C   0  0  0  0  0  0  0  0  0  0  0  0
  1  2  1  0
  2  3  2  0
  3  4  1  0
  4  5  2  0
  5  6  1  0
  6  7  2  0
  7  2  1  0
  5  8  1  0
  8  9  1  0
  9 10  1  0
 10 11  2  0
 10 12  1  0
 12 13  1  0
 12 14  1  0
  9 15  1  0
 15 16  1  0
 16 17  1  0
 17 18  2  0
 17 19  1  0
 19 20  1  0
 19 21  1  0
 21 22  2  0
 22 23  1  0
 23 24  1  0
 24 25  1  0
M  END
$$$$
s_22____12206138____13022906
     RDKit          3D

 23 23  0  0  0  0  0  0  0  0999 V2000
   -2.6122    2.8352    2.4746 O   0  0  0  0  0  0  0  0  0  0  0  0
   -1.6617    2.2411    2.9030 C   0  0  0  0  0  0  0  0  0  0  0  0
   -1.0606    2.6621    3.9881 O   0  0  0  0  0  0  0  0  0  0  0  0
   -1.5340    3.8216    4.6575 C   0  0  0  0  0  0  0  0  0  0  0  0
   -1.1550    1.0000    2.1865 C   0  0  0  0  0  0  0  0  0  0  0  0
    0.3150    1.0000    2.1865 N   0  0  0  0  0  0  0  0  0  0  0  0
    1.0000    1.0000    1.0000 C   0  0  0  0  0  0  0  0  0  0  0  0
    0.4000    1.0000   -0.0392 O   0  0  0  0  0  0  0  0  0  0  0  0
    2.5200    1.0000    1.0000 C   0  0  0  0  0  0  0  0  0  0  0  0
    3.0267   -0.2411    1.7165 C   0  0  0  0  0  0  0  0  0  0  0  0
    4.5467   -0.2411    1.7165 C   0  0  0  0  0  0  0  0  0  0  0  0
    5.0367   -1.4413    2.4095 N   0  0  0  0  0  0  0  0  0  0  0  0
    6.5067   -1.4413    2.4095 C   0  0  0  0  0  0  0  0  0  0  0  0
    4.5467   -1.4413    3.7954 C   0  0  0  0  0  0  0  0  0  0  0  0
    3.0267    1.0000   -0.4331 C   0  0  0  0  0  0  0  0  0  0  0  0
   -1.6617   -0.2411    2.9030 C   0  0  0  0  0  0  0  0  0  0  0  0
   -3.1821   -0.2411    2.9030 C   0  0  0  0  0  0  0  0  0  0  0  0
   -3.8776   -0.8436    1.8593 C   0  0  0  0  0  0  0  0  0  0  0  0
   -3.2181   -1.4322    0.8386 O   0  0  0  0  0  0  0  0  0  0  0  0
   -5.2690   -0.8435    1.8592 C   0  0  0  0  0  0  0  0  0  0  0  0
   -5.9646   -0.2412    2.9031 C   0  0  0  0  0  0  0  0  0  0  0  0
   -5.2687    0.3606    3.9468 C   0  0  0  0  0  0  0  0  0  0  0  0
   -3.8776    0.3600    3.9468 C   0  0  0  0  0  0  0  0  0  0  0  0
  1  2  2  0
  2  3  1  0
  3  4  1  0
  2  5  1  0
  5  6  1  0
  6  7  1  0
  7  8  2  0
  7  9  1  0
  9 10  1  0
 10 11  1  0
 11 12  1  0
 12 13  1  0
 12 14  1  0
  9 15  1  0
  5 16  1  0
 16 17  1  0
 17 18  2  0
 18 19  1  0
 18 20  1  0
 20 21  2  0
 21 22  1  0
 22 23  2  0
 23 17  1  0
M  CHG  1  12   1
M  END
$$$$
s_63____17315394____7593308
     RDKit          3D

 19 19  0  0  0  0  0  0  0  0999 V2000
    2.0450   -0.0450   -0.0450 S   0  0  0  0  0  0  0  0  0  0  0  0
    1.0000    1.0000    1.0000 C   0  0  0  0  0  0  0  0  0  0  0  0
    1.8776    1.8776    1.8776 C   0  0  0  0  0  0  0  0  0  0  0  0
    2.6974    1.0577    2.6974 O   0  0  0  0  0  0  0  0  0  0  0  0
    1.0000    2.7551    2.7551 C   0  0  0  0  0  0  0  0  0  0  0  0
    1.8778    3.6329    3.6329 C   0  0  0  0  0  0  0  0  0  0  0  0
    2.2726    4.8845    3.1710 C   0  0  0  0  0  0  0  0  0  0  0  0
    3.0744    5.6923    3.9702 C   0  0  0  0  0  0  0  0  0  0  0  0
    3.4707    5.2372    5.2236 C   0  0  0  0  0  0  0  0  0  0  0  0
    3.0774    3.9859    5.6859 C   0  0  0  0  0  0  0  0  0  0  0  0
    2.2766    3.1775    4.8859 C   0  0  0  0  0  0  0  0  0  0  0  0
    4.3462    6.1160    6.1020 C   0  0  0  0  0  0  0  0  0  0  0  0
    3.5766    6.8840    6.8680 F   0  0  0  0  0  0  0  0  0  0  0  0
    5.1133    5.3493    6.8717 F   0  0  0  0  0  0  0  0  0  0  0  0
    5.1149    6.8838    5.3348 F   0  0  0  0  0  0  0  0  0  0  0  0
    0.7488   -0.9383   -0.9383 C   0  0  0  0  0  0  0  0  0  0  0  0
    1.3862   -1.9140   -1.9140 C   0  0  0  0  0  0  0  0  0  0  0  0
    0.2977   -2.6642   -2.6642 C   0  0  0  0  0  0  0  0  0  0  0  0
    0.8554   -3.5180   -3.5180 F   0  0  0  0  0  0  0  0  0  0  0  0
  1  2  1  0
  2  3  1  0
  3  4  1  0
  3  5  1  0
  5  6  1  0
  6  7  2  0
  7  8  1  0
  8  9  2  0
  9 10  1  0
 10 11  2  0
 11  6  1  0
  9 12  1  0
 12 13  1  0
 12 14  1  0
 12 15  1  0
  1 16  1  0
 16 17  1  0
 17 18  1  0
 18 19  1  0
M  END
$$$$
s_22____13824052____17057108
     RDKit          3D

 26 26  0  0  0  0  0  0  0  0999 V2000
    0.4000    1.0000   -0.0392 O   0  0  0  0  0  0  0  0  0  0  0  0
    1.0000    1.0000    1.0000 C   0  0  0  0  0  0  0  0  0  0  0  0
    0.3150    1.0000    2.1865 N   0  0  0  0  0  0  0  0  0  0  0  0
   -1.0885    0.5646    2.2248 C   0  0  0  0  0  0  0  0  0  0  0  0
   -1.1478   -0.9321    2.4831 C   0  0  0  0  0  0  0  0  0  0  0  0
   -2.5990   -1.3824    2.5228 C   0  0  0  0  0  0  0  0  0  0  0  0
   -2.6583   -2.8791    2.7811 C   0  0  0  0  0  0  0  0  0  0  0  0
   -4.1096   -3.3293    2.8208 C   0  0  0  0  0  0  0  0  0  0  0  0
   -1.9299   -3.6146    1.6681 C   0  0  0  0  0  0  0  0  0  0  0  0
    0.9835    1.4354    3.4211 C   0  0  0  0  0  0  0  0  0  0  0  0
    2.5200    1.0000    1.0000 C   0  0  0  0  0  0  0  0  0  0  0  0
    3.0100   -0.0617    0.1091 N   0  0  0  0  0  0  0  0  0  0  0  0
    3.7976   -1.0654    0.6082 C   0  0  0  0  0  0  0  0  0  0  0  0
    4.0138   -1.1286    1.7869 O   0  0  0  0  0  0  0  0  0  0  0  0
    4.3977   -2.0989   -0.3310 C   0  0  0  0  0  0  0  0  0  0  0  0
    4.4447   -3.4494    0.3650 C   0  0  0  0  0  0  0  0  0  0  0  0
    3.1526   -4.2033    0.0958 C   0  0  0  0  0  0  0  0  0  0  0  0
    5.6203   -4.2528   -0.1667 C   0  0  0  0  0  0  0  0  0  0  0  0
    3.0267    2.3466    0.5099 C   0  0  0  0  0  0  0  0  0  0  0  0
    4.3657    2.6519    1.1613 C   0  0  0  0  0  0  0  0  0  0  0  0
    4.3977    3.3376    2.3711 C   0  0  0  0  0  0  0  0  0  0  0  0
    5.6206    3.6185    2.9712 C   0  0  0  0  0  0  0  0  0  0  0  0
    6.7977    3.2087    2.3530 C   0  0  0  0  0  0  0  0  0  0  0  0
    7.9867    3.4795    2.9318 O   0  0  0  0  0  0  0  0  0  0  0  0
    6.7712    2.5229    1.1429 C   0  0  0  0  0  0  0  0  0  0  0  0
    5.5456    2.2444    0.5474 C   0  0  0  0  0  0  0  0  0  0  0  0
  1  2  2  0
  2  3  1  0
  3  4  1  0
  4  5  1  0
  5  6  1  0
  6  7  1  0
  7  8  1  0
  7  9  1  0
  3 10  1  0
  2 11  1  0
 11 12  1  0
 12 13  1  0
 13 14  2  0
 13 15  1  0
 15 16  1  0
 16 17  1  0
 16 18  1  0
 11 19  1  0
 19 20  1  0
 20 21  2  0
 21 22  1  0
 22 23  2  0
 23 24  1  0
 23 25  1  0
 25 26  2  0
 26 20  1  0
M  END
$$$$
s_240690b____7355900____14581486
     RDKit          3D

 22 23  0  0  0  0  0  0  0  0999 V2000
    0.3116    0.6776    6.5861 S   0  0  0  0  0  0  0  0  0  0  0  0
   -0.2042   -0.2999    5.1581 C   0  0  0  0  0  0  0  0  0  0  0  0
    1.0004   -0.2121    4.2437 C   0  0  0  0  0  0  0  0  0  0  0  0
    0.9068   -1.2953    3.2561 N   0  0  0  0  0  0  0  0  0  0  0  0
    1.0707    1.1147    3.5003 C   0  0  0  0  0  0  0  0  0  0  0  0
    0.3150    1.0000    2.1865 C   0  0  0  0  0  0  0  0  0  0  0  0
   -0.8816    0.9094    2.1884 O   0  0  0  0  0  0  0  0  0  0  0  0
    1.0000    1.0000    1.0000 N   0  0  0  0  0  0  0  0  0  0  0  0
    2.4700    1.0000    1.0000 C   0  0  0  0  0  0  0  0  0  0  0  0
    2.9767   -0.2411    0.2835 C   0  0  0  0  0  0  0  0  0  0  0  0
    3.9272   -0.8352    0.7118 O   0  0  0  0  0  0  0  0  0  0  0  0
    2.3756   -0.6621   -0.8017 O   0  0  0  0  0  0  0  0  0  0  0  0
    2.8490   -1.8216   -1.4711 C   0  0  0  0  0  0  0  0  0  0  0  0
    2.9767    2.2411    0.2835 C   0  0  0  0  0  0  0  0  0  0  0  0
    2.4699    3.4824    1.0001 C   0  0  0  0  0  0  0  0  0  0  0  0
    1.2536    4.0450    0.6273 C   0  0  0  0  0  0  0  0  0  0  0  0
    0.7940    5.1813    1.2851 C   0  0  0  0  0  0  0  0  0  0  0  0
    1.5485    5.7457    2.3082 C   0  0  0  0  0  0  0  0  0  0  0  0
    2.7618    5.1749    2.6725 C   0  0  0  0  0  0  0  0  0  0  0  0
    3.2326    4.0390    2.0220 C   0  0  0  0  0  0  0  0  0  0  0  0
    2.2005   -0.4350    5.1505 C   0  0  0  0  0  0  0  0  0  0  0  0
    2.0889    0.4973    6.3404 C   0  0  0  0  0  0  0  0  0  0  0  0
  1  2  1  0
  2  3  1  0
  3  4  1  0
  3  5  1  0
  5  6  1  0
  6  7  2  0
  6  8  1  0
  8  9  1  0
  9 10  1  0
 10 11  2  0
 10 12  1  0
 12 13  1  0
  9 14  1  0
 14 15  1  0
 15 16  2  0
 16 17  1  0
 17 18  2  0
 18 19  1  0
 19 20  2  0
 20 15  1  0
  3 21  1  0
 21 22  1  0
 22  1  1  0
M  CHG  1   4   1
M  END
$$$$
s_1458____17513454____13763134
     RDKit          3D

 23 24  0  0  0  0  0  0  0  0999 V2000
    0.9450    1.0000    3.1737 O   0  0  0  0  0  0  0  0  0  0  0  0
    0.3450    1.0000    2.1345 C   0  0  0  0  0  0  0  0  0  0  0  0
    1.0000    1.0000    1.0000 O   0  0  0  0  0  0  0  0  0  0  0  0
    2.4200    1.0000    1.0000 C   0  0  0  0  0  0  0  0  0  0  0  0
    2.9267   -0.4331    1.0000 C   0  0  0  0  0  0  0  0  0  0  0  0
    4.4467   -0.4331    1.0000 C   0  0  0  0  0  0  0  0  0  0  0  0
    4.9533   -1.8661    1.0000 C   0  0  0  0  0  0  0  0  0  0  0  0
    6.4740   -1.8661    1.0000 C   0  0  0  0  0  0  0  0  0  0  0  0
    7.0114   -1.1655    2.2136 C   0  0  0  0  0  0  0  0  0  0  0  0
    7.0475   -0.4839    0.8758 C   0  0  0  0  0  0  0  0  0  0  0  0
   -1.1750    1.0000    2.1345 C   0  0  0  0  0  0  0  0  0  0  0  0
   -1.6650    1.0000    3.5204 N   0  0  0  0  0  0  0  0  0  0  0  0
   -2.4526    2.0275    3.9685 C   0  0  0  0  0  0  0  0  0  0  0  0
   -2.7425    2.9275    3.2296 O   0  0  0  0  0  0  0  0  0  0  0  0
   -2.9593    2.0275    5.4016 C   0  0  0  0  0  0  0  0  0  0  0  0
   -1.6817   -0.2411    1.4180 C   0  0  0  0  0  0  0  0  0  0  0  0
   -3.2017   -0.2411    1.4180 C   0  0  0  0  0  0  0  0  0  0  0  0
   -3.8861    0.3644    0.3692 C   0  0  0  0  0  0  0  0  0  0  0  0
   -5.2769    0.3662    0.3646 C   0  0  0  0  0  0  0  0  0  0  0  0
   -5.9666   -0.2391    1.4104 C   0  0  0  0  0  0  0  0  0  0  0  0
   -7.3164   -0.2393    1.4101 O   0  0  0  0  0  0  0  0  0  0  0  0
   -5.2870   -0.8457    2.4618 C   0  0  0  0  0  0  0  0  0  0  0  0
   -3.8962   -0.8449    2.4611 C   0  0  0  0  0  0  0  0  0  0  0  0
  1  2  2  0
  2  3  1  0
  3  4  1  0
  4  5  1  0
  5  6  1  0
  6  7  1  0
  7  8  1  0
  8  9  1  0
  9 10  1  0
 10  8  1  0
  2 11  1  0
 11 12  1  0
 12 13  1  0
 13 14  2  0
 13 15  1  0
 11 16  1  0
 16 17  1  0
 17 18  2  0
 18 19  1  0
 19 20  2  0
 20 21  1  0
 20 22  1  0
 22 23  2  0
 23 17  1  0
M  END
$$$$
s_1458____17513454____9433362
     RDKit          3D

 23 23  0  0  0  0  0  0  0  0999 V2000
    1.8516   -1.3886    1.6855 O   0  0  0  0  0  0  0  0  0  0  0  0
    2.1980   -1.0002    0.6042 C   0  0  0  0  0  0  0  0  0  0  0  0
    1.8198    0.1802    0.1802 O   0  0  0  0  0  0  0  0  0  0  0  0
    1.0000    1.0000    1.0000 C   0  0  0  0  0  0  0  0  0  0  0  0
    1.8776    1.8776    1.8776 C   0  0  0  0  0  0  0  0  0  0  0  0
    1.0000    2.7551    2.7551 C   0  0  0  0  0  0  0  0  0  0  0  0
    1.8776    3.6327    3.6327 C   0  0  0  0  0  0  0  0  0  0  0  0
    2.7551    2.7551    4.5103 C   0  0  0  0  0  0  0  0  0  0  0  0
    3.6327    3.6327    5.3879 C   0  0  0  0  0  0  0  0  0  0  0  0
    3.5484    3.5484    6.6824 C   0  0  0  0  0  0  0  0  0  0  0  0
    3.0756   -1.8778   -0.2734 C   0  0  0  0  0  0  0  0  0  0  0  0
    3.3585   -3.1407    0.4237 N   0  0  0  0  0  0  0  0  0  0  0  0
    2.9743   -4.3317   -0.1336 C   0  0  0  0  0  0  0  0  0  0  0  0
    2.4068   -4.3441   -1.1909 O   0  0  0  0  0  0  0  0  0  0  0  0
    3.2668   -5.6376    0.5872 C   0  0  0  0  0  0  0  0  0  0  0  0
    4.3814   -1.1570   -0.5659 C   0  0  0  0  0  0  0  0  0  0  0  0
    5.2590   -2.0346   -1.4435 C   0  0  0  0  0  0  0  0  0  0  0  0
    5.1598   -1.9353   -2.8274 C   0  0  0  0  0  0  0  0  0  0  0  0
    5.9613   -2.7358   -3.6344 C   0  0  0  0  0  0  0  0  0  0  0  0
    6.8537   -3.6264   -3.0459 C   0  0  0  0  0  0  0  0  0  0  0  0
    7.6332   -4.4054   -3.8254 O   0  0  0  0  0  0  0  0  0  0  0  0
    6.9566   -3.7298   -1.6625 C   0  0  0  0  0  0  0  0  0  0  0  0
    6.1530   -2.9267   -0.8603 C   0  0  0  0  0  0  0  0  0  0  0  0
  1  2  2  0
  2  3  1  0
  3  4  1  0
  4  5  1  0
  5  6  1  0
  6  7  1  0
  7  8  1  0
  8  9  1  0
  9 10  2  0
  2 11  1  0
 11 12  1  0
 12 13  1  0
 13 14  2  0
 13 15  1  0
 11 16  1  0
 16 17  1  0
 17 18  2  0
 18 19  1  0
 19 20  2  0
 20 21  1  0
 20 22  1  0
 22 23  2  0
 23 17  1  0
M  END
$$$$
s_11a____2496944____548058
     RDKit          3D

 23 24  0  0  0  0  0  0  0  0999 V2000
    3.1233   -0.7065    1.0000 S   0  0  0  0  0  0  0  0  0  0  0  0
    4.9032   -0.3775    1.0000 C   0  0  0  0  0  0  0  0  0  0  0  0
    5.6619   -1.6947    1.0000 C   0  0  0  0  0  0  0  0  0  0  0  0
    5.2712    0.4192   -0.2411 C   0  0  0  0  0  0  0  0  0  0  0  0
    2.5200    1.0000    1.0000 C   0  0  0  0  0  0  0  0  0  0  0  0
    1.0000    1.0000    1.0000 C   0  0  0  0  0  0  0  0  0  0  0  0
    0.4000    1.0000   -0.0392 O   0  0  0  0  0  0  0  0  0  0  0  0
    0.3150    1.0000    2.1865 N   0  0  0  0  0  0  0  0  0  0  0  0
   -1.1550    1.0000    2.1865 C   0  0  0  0  0  0  0  0  0  0  0  0
   -1.6617    1.7165    3.4275 C   0  0  0  0  0  0  0  0  0  0  0  0
   -1.8617    1.0994    4.4370 O   0  0  0  0  0  0  0  0  0  0  0  0
   -1.8955    3.0995    3.3928 N   0  0  0  0  0  0  0  0  0  0  0  0
   -2.3817    3.9128    4.5112 C   0  0  0  0  0  0  0  0  0  0  0  0
   -1.7866    5.2876    4.2782 C   0  0  0  0  0  0  0  0  0  0  0  0
   -1.4057    5.3496    2.8092 C   0  0  0  0  0  0  0  0  0  0  0  0
   -1.7030    3.9781    2.2337 C   0  0  0  0  0  0  0  0  0  0  0  0
   -1.6617   -0.4331    2.1865 C   0  0  0  0  0  0  0  0  0  0  0  0
   -3.1704   -0.4372    1.9994 C   0  0  0  0  0  0  0  0  0  0  0  0
   -3.7097   -0.1773    0.7438 C   0  0  0  0  0  0  0  0  0  0  0  0
   -5.0908   -0.1812    0.5771 C   0  0  0  0  0  0  0  0  0  0  0  0
   -5.9214   -0.4449    1.6612 C   0  0  0  0  0  0  0  0  0  0  0  0
   -5.3715   -0.7036    2.9107 C   0  0  0  0  0  0  0  0  0  0  0  0
   -3.9921   -0.7019    3.0904 C   0  0  0  0  0  0  0  0  0  0  0  0
  1  2  1  0
  2  3  1  0
  2  4  1  0
  1  5  1  0
  5  6  1  0
  6  7  2  0
  6  8  1  0
  8  9  1  0
  9 10  1  0
 10 11  2  0
 10 12  1  0
 12 13  1  0
 13 14  1  0
 14 15  1  0
 15 16  1  0
 16 12  1  0
  9 17  1  0
 17 18  1  0
 18 19  2  0
 19 20  1  0
 20 21  2  0
 21 22  1  0
 22 23  2  0
 23 18  1  0
M  END
$$$$
s_22____11566452____548060
     RDKit          3D

 24 24  0  0  0  0  0  0  0  0999 V2000
   -1.8083   -0.7065    2.1865 S   0  0  0  0  0  0  0  0  0  0  0  0
   -3.5882   -0.3775    2.1865 C   0  0  0  0  0  0  0  0  0  0  0  0
   -4.3469   -1.6947    2.1865 C   0  0  0  0  0  0  0  0  0  0  0  0
   -3.9562    0.4192    3.4275 C   0  0  0  0  0  0  0  0  0  0  0  0
   -1.2050    1.0000    2.1865 C   0  0  0  0  0  0  0  0  0  0  0  0
    0.3150    1.0000    2.1865 C   0  0  0  0  0  0  0  0  0  0  0  0
    0.9150    1.0000    3.2257 O   0  0  0  0  0  0  0  0  0  0  0  0
    1.0000    1.0000    1.0000 N   0  0  0  0  0  0  0  0  0  0  0  0
    2.4700    1.0000    1.0000 C   0  0  0  0  0  0  0  0  0  0  0  0
    2.9767   -0.4113    1.2488 C   0  0  0  0  0  0  0  0  0  0  0  0
    4.4967   -0.4113    1.2488 C   0  0  0  0  0  0  0  0  0  0  0  0
    5.0967   -0.7667    2.2254 O   0  0  0  0  0  0  0  0  0  0  0  0
    5.1817   -0.0055    0.1339 N   0  0  0  0  0  0  0  0  0  0  0  0
    6.6517   -0.0055    0.1339 C   0  0  0  0  0  0  0  0  0  0  0  0
    2.4700   -1.3325    0.1511 C   0  0  0  0  0  0  0  0  0  0  0  0
    2.9765   -2.7434    0.3998 C   0  0  0  0  0  0  0  0  0  0  0  0
    2.2070   -3.6081    1.1702 C   0  0  0  0  0  0  0  0  0  0  0  0
    2.6743   -4.8985    1.3945 C   0  0  0  0  0  0  0  0  0  0  0  0
    1.9588   -5.7469    2.1269 F   0  0  0  0  0  0  0  0  0  0  0  0
    3.8889   -5.3128    0.8562 C   0  0  0  0  0  0  0  0  0  0  0  0
    4.3338   -6.5682    1.0799 O   0  0  0  0  0  0  0  0  0  0  0  0
    5.5733   -6.9906    0.5305 C   0  0  0  0  0  0  0  0  0  0  0  0
    4.6545   -4.4436    0.0860 C   0  0  0  0  0  0  0  0  0  0  0  0
    4.1914   -3.1517   -0.1410 C   0  0  0  0  0  0  0  0  0  0  0  0
  1  2  1  0
  2  3  1  0
  2  4  1  0
  1  5  1  0
  5  6  1  0
  6  7  2  0
  6  8  1  0
  8  9  1  0
  9 10  1  0
 10 11  1  0
 11 12  2  0
 11 13  1  0
 13 14  1  0
 10 15  1  0
 15 16  1  0
 16 17  2  0
 17 18  1  0
 18 19  1  0
 18 20  2  0
 20 21  1  0
 21 22  1  0
 20 23  1  0
 23 24  2  0
 24 16  1  0
M  END
$$$$
s_240690b____13611768____14577254
     RDKit          3D

 20 20  0  0  0  0  0  0  0  0999 V2000
    7.2786   -0.4345    3.3613 F   0  0  0  0  0  0  0  0  0  0  0  0
    6.6093   -0.4339    2.2119 C   0  0  0  0  0  0  0  0  0  0  0  0
    7.3108   -0.4351    1.0100 C   0  0  0  0  0  0  0  0  0  0  0  0
    8.7308   -0.4359    1.0163 O   0  0  0  0  0  0  0  0  0  0  0  0
    6.6328   -0.4354   -0.2046 C   0  0  0  0  0  0  0  0  0  0  0  0
    5.2418   -0.4344   -0.2047 C   0  0  0  0  0  0  0  0  0  0  0  0
    4.5463   -0.4331    1.0000 C   0  0  0  0  0  0  0  0  0  0  0  0
    5.2188   -0.4331    2.2171 C   0  0  0  0  0  0  0  0  0  0  0  0
    3.0267   -0.4331    1.0000 C   0  0  0  0  0  0  0  0  0  0  0  0
    2.5200    1.0000    1.0000 C   0  0  0  0  0  0  0  0  0  0  0  0
    3.0100    1.6930   -0.2002 N   0  0  0  0  0  0  0  0  0  0  0  0
    1.0000    1.0000    1.0000 C   0  0  0  0  0  0  0  0  0  0  0  0
    0.4000    1.0000   -0.0392 O   0  0  0  0  0  0  0  0  0  0  0  0
    0.3150    1.0000    2.1865 N   0  0  0  0  0  0  0  0  0  0  0  0
   -1.1550    1.0000    2.1865 C   0  0  0  0  0  0  0  0  0  0  0  0
   -1.6617   -0.4331    2.1865 C   0  0  0  0  0  0  0  0  0  0  0  0
   -1.8783   -1.0459    3.3123 C   0  0  0  0  0  0  0  0  0  0  0  0
    1.0500    1.0000    3.4595 C   0  0  0  0  0  0  0  0  0  0  0  0
    1.3033    2.4331    3.8983 C   0  0  0  0  0  0  0  0  0  0  0  0
    2.0633    2.4331    5.2147 C   0  0  0  0  0  0  0  0  0  0  0  0
  1  2  1  0
  2  3  2  0
  3  4  1  0
  3  5  1  0
  5  6  2  0
  6  7  1  0
  7  8  2  0
  8  2  1  0
  7  9  1  0
  9 10  1  0
 10 11  1  0
 10 12  1  0
 12 13  2  0
 12 14  1  0
 14 15  1  0
 15 16  1  0
 16 17  2  0
 14 18  1  0
 18 19  1  0
 19 20  1  0
M  CHG  1  11   1
M  END
$$$$
s_22____14326058____220032
     RDKit          3D

 20 21  0  0  0  0  0  0  0  0999 V2000
    1.5239    0.5299   -2.6349 S   0  0  0  0  0  0  0  0  0  0  0  0
    2.6781    0.3655   -1.3961 C   0  0  0  0  0  0  0  0  0  0  0  0
    3.2192   -0.8774   -1.5074 C   0  0  0  0  0  0  0  0  0  0  0  0
    2.6651   -1.6331   -2.5775 C   0  0  0  0  0  0  0  0  0  0  0  0
    1.7023   -1.0184   -3.3205 C   0  0  0  0  0  0  0  0  0  0  0  0
    3.0267    1.4309   -0.3667 C   0  0  0  0  0  0  0  0  0  0  0  0
    4.4855    1.6046   -0.3161 N   0  0  0  0  0  0  0  0  0  0  0  0
    5.0404    2.8242   -0.6018 C   0  0  0  0  0  0  0  0  0  0  0  0
    4.3356    3.7506   -0.8934 O   0  0  0  0  0  0  0  0  0  0  0  0
    6.5489    3.0038   -0.5495 C   0  0  0  0  0  0  0  0  0  0  0  0
    2.5200    1.0000    1.0000 C   0  0  0  0  0  0  0  0  0  0  0  0
    1.0000    1.0000    1.0000 C   0  0  0  0  0  0  0  0  0  0  0  0
    0.4000    1.0000   -0.0392 O   0  0  0  0  0  0  0  0  0  0  0  0
    0.3150    1.0000    2.1865 N   0  0  0  0  0  0  0  0  0  0  0  0
   -1.1550    1.0000    2.1865 C   0  0  0  0  0  0  0  0  0  0  0  0
   -1.6617    1.0000    3.6197 C   0  0  0  0  0  0  0  0  0  0  0  0
   -1.1839    2.2175    4.3769 C   0  0  0  0  0  0  0  0  0  0  0  0
   -1.1334    1.1118    5.7986 S   0  0  0  0  0  0  0  0  0  0  0  0
   -0.9617   -0.0582    4.4402 C   0  0  0  0  0  0  0  0  0  0  0  0
   -3.1745    0.8634    3.5961 C   0  0  0  0  0  0  0  0  0  0  0  0
  1  2  1  0
  2  3  2  0
  3  4  1  0
  4  5  2  0
  5  1  1  0
  2  6  1  0
  6  7  1  0
  7  8  1  0
  8  9  2  0
  8 10  1  0
  6 11  1  0
 11 12  1  0
 12 13  2  0
 12 14  1  0
 14 15  1  0
 15 16  1  0
 16 17  1  0
 17 18  1  0
 18 19  1  0
 19 16  1  0
 16 20  1  0
M  END
$$$$
s_22____1322838____60463
     RDKit          3D

 22 22  0  0  0  0  0  0  0  0999 V2000
   -1.8083   -0.7065    2.1865 S   0  0  0  0  0  0  0  0  0  0  0  0
   -3.5882   -0.3775    2.1865 C   0  0  0  0  0  0  0  0  0  0  0  0
   -4.3469   -1.6947    2.1865 C   0  0  0  0  0  0  0  0  0  0  0  0
   -3.9562    0.4192    3.4275 C   0  0  0  0  0  0  0  0  0  0  0  0
   -3.9562    0.4192    0.9454 C   0  0  0  0  0  0  0  0  0  0  0  0
   -1.2050    1.0000    2.1865 C   0  0  0  0  0  0  0  0  0  0  0  0
    0.3150    1.0000    2.1865 C   0  0  0  0  0  0  0  0  0  0  0  0
    0.9150    1.0000    3.2257 O   0  0  0  0  0  0  0  0  0  0  0  0
    1.0000    1.0000    1.0000 N   0  0  0  0  0  0  0  0  0  0  0  0
    2.4700    1.0000    1.0000 C   0  0  0  0  0  0  0  0  0  0  0  0
    2.9767   -0.4113    1.2488 C   0  0  0  0  0  0  0  0  0  0  0  0
    4.4967   -0.4113    1.2488 C   0  0  0  0  0  0  0  0  0  0  0  0
    5.0967   -0.7667    2.2254 O   0  0  0  0  0  0  0  0  0  0  0  0
    5.1817   -0.0055    0.1339 N   0  0  0  0  0  0  0  0  0  0  0  0
    2.4700   -1.3325    0.1511 C   0  0  0  0  0  0  0  0  0  0  0  0
    2.9766   -2.7436    0.3999 C   0  0  0  0  0  0  0  0  0  0  0  0
    2.2149   -3.6169    1.1690 C   0  0  0  0  0  0  0  0  0  0  0  0
    2.6734   -4.9099    1.4001 C   0  0  0  0  0  0  0  0  0  0  0  0
    3.8893   -5.3128    0.8577 C   0  0  0  0  0  0  0  0  0  0  0  0
    4.3335   -6.5480    1.0738 F   0  0  0  0  0  0  0  0  0  0  0  0
    4.6554   -4.4430    0.0885 C   0  0  0  0  0  0  0  0  0  0  0  0
    4.1918   -3.1516   -0.1394 C   0  0  0  0  0  0  0  0  0  0  0  0
  1  2  1  0
  2  3  1  0
  2  4  1  0
  2  5  1  0
  1  6  1  0
  6  7  1  0
  7  8  2  0
  7  9  1  0
  9 10  1  0
 10 11  1  0
 11 12  1  0
 12 13  2  0
 12 14  1  0
 11 15  1  0
 15 16  1  0
 16 17  2  0
 17 18  1  0
 18 19  2  0
 19 20  1  0
 19 21  1  0
 21 22  2  0
 22 16  1  0
M  END
$$$$
s_527a____10214102____17513452
     RDKit          3D

 22 22  0  0  0  0  0  0  0  0999 V2000
   -3.6217   -0.4331    2.1865 Br  0  0  0  0  0  0  0  0  0  0  0  0
   -1.6617   -0.4331    2.1865 C   0  0  0  0  0  0  0  0  0  0  0  0
   -1.2183   -1.0600    1.1005 F   0  0  0  0  0  0  0  0  0  0  0  0
   -1.2183   -1.0600    3.2724 F   0  0  0  0  0  0  0  0  0  0  0  0
   -1.1550    1.0000    2.1865 C   0  0  0  0  0  0  0  0  0  0  0  0
    0.3150    1.0000    2.1865 N   0  0  0  0  0  0  0  0  0  0  0  0
    1.0000    1.0000    1.0000 C   0  0  0  0  0  0  0  0  0  0  0  0
    0.4000    1.0000   -0.0392 O   0  0  0  0  0  0  0  0  0  0  0  0
    2.5200    1.0000    1.0000 C   0  0  0  0  0  0  0  0  0  0  0  0
    3.0100    1.6930   -0.2002 N   0  0  0  0  0  0  0  0  0  0  0  0
    3.2383    3.0434   -0.1663 C   0  0  0  0  0  0  0  0  0  0  0  0
    3.0383    3.6605    0.8432 O   0  0  0  0  0  0  0  0  0  0  0  0
    3.7450    3.7599   -1.4074 C   0  0  0  0  0  0  0  0  0  0  0  0
    3.0267   -0.4331    1.0000 C   0  0  0  0  0  0  0  0  0  0  0  0
    4.5467   -0.4331    1.0000 C   0  0  0  0  0  0  0  0  0  0  0  0
    5.2311   -0.4331    2.2110 C   0  0  0  0  0  0  0  0  0  0  0  0
    6.6219   -0.4338    2.2159 C   0  0  0  0  0  0  0  0  0  0  0  0
    7.3116   -0.4351    1.0075 C   0  0  0  0  0  0  0  0  0  0  0  0
    8.7316   -0.4355    1.0077 O   0  0  0  0  0  0  0  0  0  0  0  0
    6.6320   -0.4347   -0.2063 C   0  0  0  0  0  0  0  0  0  0  0  0
    5.2412   -0.4344   -0.2053 C   0  0  0  0  0  0  0  0  0  0  0  0
    1.0500    1.0000    3.4595 C   0  0  0  0  0  0  0  0  0  0  0  0
  1  2  1  0
  2  3  1  0
  2  4  1  0
  2  5  1  0
  5  6  1  0
  6  7  1  0
  7  8  2  0
  7  9  1  0
  9 10  1  0
 10 11  1  0
 11 12  2  0
 11 13  1  0
  9 14  1  0
 14 15  1  0
 15 16  2  0
 16 17  1  0
 17 18  2  0
 18 19  1  0
 18 20  1  0
 20 21  2  0
 21 15  1  0
  6 22  1  0
M  END
$$$$
s_22____15786952____13287720
     RDKit          3D

 19 19  0  0  0  0  0  0  0  0999 V2000
    0.4000   -0.0392    1.0000 O   0  0  0  0  0  0  0  0  0  0  0  0
    1.0000    1.0000    1.0000 C   0  0  0  0  0  0  0  0  0  0  0  0
    2.3700    1.0000    1.0000 N   0  0  0  0  0  0  0  0  0  0  0  0
    3.1050   -0.2731    1.0000 C   0  0  0  0  0  0  0  0  0  0  0  0
    3.1428   -0.8363   -0.4113 C   0  0  0  0  0  0  0  0  0  0  0  0
    3.9030   -2.1530   -0.4113 C   0  0  0  0  0  0  0  0  0  0  0  0
    3.2107   -3.3411   -0.2008 C   0  0  0  0  0  0  0  0  0  0  0  0
    3.9113   -4.5427   -0.2011 C   0  0  0  0  0  0  0  0  0  0  0  0
    3.2432   -5.6983    0.0027 O   0  0  0  0  0  0  0  0  0  0  0  0
    5.2868   -4.5557   -0.4089 C   0  0  0  0  0  0  0  0  0  0  0  0
    5.9702   -3.3621   -0.6193 C   0  0  0  0  0  0  0  0  0  0  0  0
    5.2785   -2.1551   -0.6207 C   0  0  0  0  0  0  0  0  0  0  0  0
    6.0582   -5.8655   -0.4110 C   0  0  0  0  0  0  0  0  0  0  0  0
    0.2400    2.3164    1.0000 C   0  0  0  0  0  0  0  0  0  0  0  0
    0.0843    2.9770   -0.1087 C   0  0  0  0  0  0  0  0  0  0  0  0
   -0.3380    2.8602    2.2964 C   0  0  0  0  0  0  0  0  0  0  0  0
    0.7843    3.0841    3.2968 C   0  0  0  0  0  0  0  0  0  0  0  0
    1.7790    4.0825    2.7274 C   0  0  0  0  0  0  0  0  0  0  0  0
    0.2063    3.6280    4.5932 C   0  0  0  0  0  0  0  0  0  0  0  0
  1  2  2  0
  2  3  1  0
  3  4  1  0
  4  5  1  0
  5  6  1  0
  6  7  2  0
  7  8  1  0
  8  9  1  0
  8 10  2  0
 10 11  1  0
 11 12  2  0
 12  6  1  0
 10 13  1  0
  2 14  1  0
 14 15  2  0
 14 16  1  0
 16 17  1  0
 17 18  1  0
 17 19  1  0
M  END
$$$$
s_22____9277430____3192126
     RDKit          3D

 24 24  0  0  0  0  0  0  0  0999 V2000
    0.4000    1.0000   -0.0392 O   0  0  0  0  0  0  0  0  0  0  0  0
    1.0000    1.0000    1.0000 C   0  0  0  0  0  0  0  0  0  0  0  0
    0.3150    1.0000    2.1865 N   0  0  0  0  0  0  0  0  0  0  0  0
   -1.1550    1.0000    2.1865 C   0  0  0  0  0  0  0  0  0  0  0  0
   -1.6617   -0.4113    1.9376 C   0  0  0  0  0  0  0  0  0  0  0  0
   -3.1817   -0.4113    1.9376 C   0  0  0  0  0  0  0  0  0  0  0  0
   -3.8317   -0.7964    0.8797 C   0  0  0  0  0  0  0  0  0  0  0  0
   -5.3517   -0.7964    0.8797 C   0  0  0  0  0  0  0  0  0  0  0  0
   -3.0717   -1.2466   -0.3573 C   0  0  0  0  0  0  0  0  0  0  0  0
    2.5200    1.0000    1.0000 C   0  0  0  0  0  0  0  0  0  0  0  0
    3.0267    2.1369    0.1276 C   0  0  0  0  0  0  0  0  0  0  0  0
    4.4967    2.1369    0.1276 N   0  0  0  0  0  0  0  0  0  0  0  0
    5.1817    1.9821   -1.0487 C   0  0  0  0  0  0  0  0  0  0  0  0
    4.5817    1.8464   -2.0790 O   0  0  0  0  0  0  0  0  0  0  0  0
    6.7017    1.9821   -1.0487 C   0  0  0  0  0  0  0  0  0  0  0  0
    2.5198    3.4613    0.6762 C   0  0  0  0  0  0  0  0  0  0  0  0
    1.4846    4.1308    0.0311 C   0  0  0  0  0  0  0  0  0  0  0  0
    0.9193    3.6189   -1.0832 O   0  0  0  0  0  0  0  0  0  0  0  0
    0.2941    4.4811   -2.0225 C   0  0  0  0  0  0  0  0  0  0  0  0
   -0.2574    3.6591   -3.1759 C   0  0  0  0  0  0  0  0  0  0  0  0
    1.0209    5.3429    0.5330 C   0  0  0  0  0  0  0  0  0  0  0  0
    1.5922    5.8849    1.6802 C   0  0  0  0  0  0  0  0  0  0  0  0
    2.6269    5.2147    2.3252 C   0  0  0  0  0  0  0  0  0  0  0  0
    3.0902    4.0028    1.8234 C   0  0  0  0  0  0  0  0  0  0  0  0
  1  2  2  0
  2  3  1  0
  3  4  1  0
  4  5  1  0
  5  6  1  0
  6  7  2  3
  7  8  1  0
  7  9  1  0
  2 10  1  0
 10 11  1  0
 11 12  1  0
 12 13  1  0
 13 14  2  0
 13 15  1  0
 11 16  1  0
 16 17  2  0
 17 18  1  0
 18 19  1  0
 19 20  1  0
 17 21  1  0
 21 22  2  0
 22 23  1  0
 23 24  2  0
 24 16  1  0
M  END
$$$$
s_272164____9388494____17340966
     RDKit          3D

 22 23  0  0  0  0  0  0  0  0999 V2000
   -0.8307    1.3554   -0.2178 O   0  0  0  0  0  0  0  0  0  0  0  0
    0.3150    1.0000   -0.1865 C   0  0  0  0  0  0  0  0  0  0  0  0
    0.9511    0.5857   -1.3613 N   0  0  0  0  0  0  0  0  0  0  0  0
    1.9793    1.3267   -1.9506 C   0  0  0  0  0  0  0  0  0  0  0  0
    3.3035    0.9321   -1.8025 C   0  0  0  0  0  0  0  0  0  0  0  0
    3.6046   -0.2180   -1.0660 N   0  0  0  0  0  0  0  0  0  0  0  0
    2.8913   -1.3707   -1.4044 C   0  0  0  0  0  0  0  0  0  0  0  0
    3.0576   -2.4108   -0.7894 O   0  0  0  0  0  0  0  0  0  0  0  0
    1.9017   -1.2354   -2.5505 C   0  0  0  0  0  0  0  0  0  0  0  0
    0.5881   -0.6561   -2.0511 C   0  0  0  0  0  0  0  0  0  0  0  0
   -0.1482   -1.6381   -1.1507 C   0  0  0  0  0  0  0  0  0  0  0  0
    4.3399    1.6551   -2.3823 C   0  0  0  0  0  0  0  0  0  0  0  0
    4.0632    2.7945   -3.1290 C   0  0  0  0  0  0  0  0  0  0  0  0
    2.7426    3.2019   -3.2851 C   0  0  0  0  0  0  0  0  0  0  0  0
    1.7144    2.4712   -2.6982 C   0  0  0  0  0  0  0  0  0  0  0  0
    1.0000    1.0000    1.0000 N   0  0  0  0  0  0  0  0  0  0  0  0
    2.4700    1.0000    1.0000 C   0  0  0  0  0  0  0  0  0  0  0  0
    2.9767    2.3570    1.4606 C   0  0  0  0  0  0  0  0  0  0  0  0
    3.8395    2.4339    2.4300 C   0  0  0  0  0  0  0  0  0  0  0  0
    0.2650    1.0000    2.2731 C   0  0  0  0  0  0  0  0  0  0  0  0
    0.0117   -0.4331    2.7118 C   0  0  0  0  0  0  0  0  0  0  0  0
   -0.7483   -0.4331    4.0282 C   0  0  0  0  0  0  0  0  0  0  0  0
  1  2  2  0
  2  3  1  0
  3  4  1  0
  4  5  2  0
  5  6  1  0
  6  7  1  0
  7  8  2  0
  7  9  1  0
  9 10  1  0
 10  3  1  0
 10 11  1  0
  5 12  1  0
 12 13  2  0
 13 14  1  0
 14 15  2  0
 15  4  1  0
  2 16  1  0
 16 17  1  0
 17 18  1  0
 18 19  2  0
 16 20  1  0
 20 21  1  0
 21 22  1  0
M  END
$$$$
s_22____11649876____16481288
     RDKit          3D

 21 21  0  0  0  0  0  0  0  0999 V2000
    3.1233   -0.7065    1.0000 S   0  0  0  0  0  0  0  0  0  0  0  0
    2.5200    1.0000    1.0000 C   0  0  0  0  0  0  0  0  0  0  0  0
    1.0000    1.0000    1.0000 C   0  0  0  0  0  0  0  0  0  0  0  0
    0.4000    1.0000   -0.0392 O   0  0  0  0  0  0  0  0  0  0  0  0
    0.3150    1.0000    2.1865 N   0  0  0  0  0  0  0  0  0  0  0  0
   -1.1550    1.0000    2.1865 C   0  0  0  0  0  0  0  0  0  0  0  0
   -1.6617   -0.2411    2.9030 C   0  0  0  0  0  0  0  0  0  0  0  0
   -2.6122   -0.8352    2.4746 O   0  0  0  0  0  0  0  0  0  0  0  0
   -1.0606   -0.6621    3.9881 O   0  0  0  0  0  0  0  0  0  0  0  0
   -1.5340   -1.8216    4.6575 C   0  0  0  0  0  0  0  0  0  0  0  0
   -1.6617    2.2411    2.9030 C   0  0  0  0  0  0  0  0  0  0  0  0
   -3.1820    2.2411    2.9030 C   0  0  0  0  0  0  0  0  0  0  0  0
   -3.8710    1.6369    3.9495 C   0  0  0  0  0  0  0  0  0  0  0  0
   -5.2621    1.6384    3.9451 C   0  0  0  0  0  0  0  0  0  0  0  0
   -5.9537    2.2423    2.9003 C   0  0  0  0  0  0  0  0  0  0  0  0
   -5.2549    2.8431    1.8605 C   0  0  0  0  0  0  0  0  0  0  0  0
   -3.8639    2.8477    1.8529 C   0  0  0  0  0  0  0  0  0  0  0  0
    4.9032   -0.3775    1.0000 C   0  0  0  0  0  0  0  0  0  0  0  0
    5.6619   -1.6947    1.0000 C   0  0  0  0  0  0  0  0  0  0  0  0
    7.1566   -1.4184    1.0000 C   0  0  0  0  0  0  0  0  0  0  0  0
    8.2776   -1.2112    1.0000 N   0  0  0  0  0  0  0  0  0  0  0  0
  1  2  1  0
  2  3  1  0
  3  4  2  0
  3  5  1  0
  5  6  1  0
  6  7  1  0
  7  8  2  0
  7  9  1  0
  9 10  1  0
  6 11  1  0
 11 12  1  0
 12 13  2  0
 13 14  1  0
 14 15  2  0
 15 16  1  0
 16 17  2  0
 17 12  1  0
  1 18  1  0
 18 19  1  0
 19 20  1  0
 20 21  3  0
M  END
$$$$
s_62____2390328____81227
     RDKit          3D

 18 18  0  0  0  0  0  0  0  0999 V2000
   -0.0617    2.8389   -0.7065 S   0  0  0  0  0  0  0  0  0  0  0  0
   -0.9516    4.3803   -0.3775 C   0  0  0  0  0  0  0  0  0  0  0  0
   -1.3309    5.0373   -1.6947 C   0  0  0  0  0  0  0  0  0  0  0  0
   -2.2104    4.0784    0.4192 C   0  0  0  0  0  0  0  0  0  0  0  0
    0.2400    2.3164    1.0000 C   0  0  0  0  0  0  0  0  0  0  0  0
    1.0000    1.0000    1.0000 C   0  0  0  0  0  0  0  0  0  0  0  0
    0.4000   -0.0392    1.0000 O   0  0  0  0  0  0  0  0  0  0  0  0
    2.3700    1.0000    1.0000 N   0  0  0  0  0  0  0  0  0  0  0  0
    3.0701   -0.2127    1.0000 C   0  0  0  0  0  0  0  0  0  0  0  0
    4.4610   -0.2080    1.0000 C   0  0  0  0  0  0  0  0  0  0  0  0
    5.1385   -1.4230    0.9997 C   0  0  0  0  0  0  0  0  0  0  0  0
    6.6085   -1.4189    0.9997 N   0  0  0  0  0  0  0  0  0  0  0  0
    7.2968   -2.6034    0.9994 C   0  0  0  0  0  0  0  0  0  0  0  0
    6.6997   -3.6443    0.9991 O   0  0  0  0  0  0  0  0  0  0  0  0
    8.8168   -2.5992    0.9995 C   0  0  0  0  0  0  0  0  0  0  0  0
    4.4480   -2.6303    1.0008 C   0  0  0  0  0  0  0  0  0  0  0  0
    3.0573   -2.6108    1.0006 C   0  0  0  0  0  0  0  0  0  0  0  0
    2.3589   -1.4083    1.0006 C   0  0  0  0  0  0  0  0  0  0  0  0
  1  2  1  0
  2  3  1  0
  2  4  1  0
  1  5  1  0
  5  6  1  0
  6  7  2  0
  6  8  1  0
  8  9  1  0
  9 10  2  0
 10 11  1  0
 11 12  1  0
 12 13  1  0
 13 14  2  0
 13 15  1  0
 11 16  2  0
 16 17  1  0
 17 18  2  0
 18  9  1  0
M  END
$$$$
s_512____7689040____13941176
     RDKit          3D

 20 20  0  0  0  0  0  0  0  0999 V2000
    6.5562   -3.0380    5.9522 Cl  0  0  0  0  0  0  0  0  0  0  0  0
    5.9587   -2.2020    4.4989 C   0  0  0  0  0  0  0  0  0  0  0  0
    4.9962   -2.8079    3.6990 C   0  0  0  0  0  0  0  0  0  0  0  0
    4.5270   -2.1583    2.5618 C   0  0  0  0  0  0  0  0  0  0  0  0
    5.0315   -0.9027    2.2406 C   0  0  0  0  0  0  0  0  0  0  0  0
    5.9941   -0.2965    3.0400 C   0  0  0  0  0  0  0  0  0  0  0  0
    6.4635   -0.9462    4.1774 C   0  0  0  0  0  0  0  0  0  0  0  0
    4.5250   -0.1865    1.0000 C   0  0  0  0  0  0  0  0  0  0  0  0
    3.0550   -0.1865    1.0000 N   0  0  0  0  0  0  0  0  0  0  0  0
    2.3700    1.0000    1.0000 C   0  0  0  0  0  0  0  0  0  0  0  0
    2.9700    2.0392    1.0000 O   0  0  0  0  0  0  0  0  0  0  0  0
    1.0000    1.0000    1.0000 N   0  0  0  0  0  0  0  0  0  0  0  0
    0.2650    2.2731    1.0000 C   0  0  0  0  0  0  0  0  0  0  0  0
    0.2272    2.8363   -0.4113 C   0  0  0  0  0  0  0  0  0  0  0  0
   -0.6033    1.6601   -1.5082 S   0  0  0  0  0  0  0  0  0  0  0  0
   -0.4904    2.5895   -3.0573 C   0  0  0  0  0  0  0  0  0  0  0  0
   -0.5328    4.1526   -0.4113 C   0  0  0  0  0  0  0  0  0  0  0  0
    5.0317   -0.9030   -0.2411 C   0  0  0  0  0  0  0  0  0  0  0  0
    5.9822   -1.6317   -0.1672 O   0  0  0  0  0  0  0  0  0  0  0  0
    4.4031   -0.7169   -1.4441 N   0  0  0  0  0  0  0  0  0  0  0  0
  1  2  1  0
  2  3  2  0
  3  4  1  0
  4  5  2  0
  5  6  1  0
  6  7  2  0
  7  2  1  0
  5  8  1  0
  8  9  1  0
  9 10  1  0
 10 11  2  0
 10 12  1  0
 12 13  1  0
 13 14  1  0
 14 15  1  0
 15 16  1  0
 14 17  1  0
  8 18  1  0
 18 19  2  0
 18 20  1  0
M  END
$$$$
s_11a____16637818____217444
     RDKit          3D

 24 25  0  0  0  0  0  0  0  0999 V2000
    2.0766    3.0213    1.5740 O   0  0  0  0  0  0  0  0  0  0  0  0
    1.8776    1.8776    1.8776 C   0  0  0  0  0  0  0  0  0  0  0  0
    2.4413    1.3627    3.0152 N   0  0  0  0  0  0  0  0  0  0  0  0
    3.2900    2.2114    3.8639 C   0  0  0  0  0  0  0  0  0  0  0  0
    2.6862    2.3008    5.2559 C   0  0  0  0  0  0  0  0  0  0  0  0
    3.5641    3.1787    6.1338 C   0  0  0  0  0  0  0  0  0  0  0  0
    2.9979    3.2903    7.5193 C   0  0  0  0  0  0  0  0  0  0  0  0
    2.8694    4.4396    6.5611 C   0  0  0  0  0  0  0  0  0  0  0  0
    4.6820    1.6076    3.9532 C   0  0  0  0  0  0  0  0  0  0  0  0
    2.1974   -0.0384    3.3871 C   0  0  0  0  0  0  0  0  0  0  0  0
    1.0000    1.0000    1.0000 C   0  0  0  0  0  0  0  0  0  0  0  0
    0.7075    1.7208   -0.3059 C   0  0  0  0  0  0  0  0  0  0  0  0
   -0.2825    0.9552   -1.0771 N   0  0  0  0  0  0  0  0  0  0  0  0
   -1.4824    1.5266   -1.4097 C   0  0  0  0  0  0  0  0  0  0  0  0
   -1.7253    2.6520   -1.0715 O   0  0  0  0  0  0  0  0  0  0  0  0
   -2.5060    0.7349   -2.2071 C   0  0  0  0  0  0  0  0  0  0  0  0
    1.9895    1.8483   -1.1124 C   0  0  0  0  0  0  0  0  0  0  0  0
    2.6991    0.7022   -1.4555 C   0  0  0  0  0  0  0  0  0  0  0  0
    3.8724    0.8140   -2.1941 C   0  0  0  0  0  0  0  0  0  0  0  0
    4.3213    2.0727   -2.5811 C   0  0  0  0  0  0  0  0  0  0  0  0
    5.4597    2.1858   -3.2977 O   0  0  0  0  0  0  0  0  0  0  0  0
    6.0379    3.4644   -3.5148 C   0  0  0  0  0  0  0  0  0  0  0  0
    3.6157    3.2221   -2.2403 C   0  0  0  0  0  0  0  0  0  0  0  0
    2.4429    3.1045   -1.5020 C   0  0  0  0  0  0  0  0  0  0  0  0
  1  2  2  0
  2  3  1  0
  3  4  1  0
  4  5  1  0
  5  6  1  0
  6  7  1  0
  7  8  1  0
  8  6  1  0
  4  9  1  0
  3 10  1  0
  2 11  1  0
 11 12  1  0
 12 13  1  0
 13 14  1  0
 14 15  2  0
 14 16  1  0
 12 17  1  0
 17 18  2  0
 18 19  1  0
 19 20  2  0
 20 21  1  0
 21 22  1  0
 20 23  1  0
 23 24  2  0
 24 17  1  0
M  END
$$$$
s_11a____13657618____548058
     RDKit          3D

 27 28  0  0  0  0  0  0  0  0999 V2000
   -1.8083   -0.7065    2.1865 S   0  0  0  0  0  0  0  0  0  0  0  0
   -3.5882   -0.3775    2.1865 C   0  0  0  0  0  0  0  0  0  0  0  0
   -4.3469   -1.6947    2.1865 C   0  0  0  0  0  0  0  0  0  0  0  0
   -3.9562    0.4192    3.4275 C   0  0  0  0  0  0  0  0  0  0  0  0
   -1.2050    1.0000    2.1865 C   0  0  0  0  0  0  0  0  0  0  0  0
    0.3150    1.0000    2.1865 C   0  0  0  0  0  0  0  0  0  0  0  0
    0.9150    1.0000    3.2257 O   0  0  0  0  0  0  0  0  0  0  0  0
    1.0000    1.0000    1.0000 N   0  0  0  0  0  0  0  0  0  0  0  0
    2.4700    1.0000    1.0000 C   0  0  0  0  0  0  0  0  0  0  0  0
    2.9767    2.2411    0.2835 C   0  0  0  0  0  0  0  0  0  0  0  0
    3.9272    2.8352    0.7118 O   0  0  0  0  0  0  0  0  0  0  0  0
    2.3756    2.6621   -0.8017 O   0  0  0  0  0  0  0  0  0  0  0  0
    2.8490    3.8216   -1.4711 C   0  0  0  0  0  0  0  0  0  0  0  0
    2.9767   -0.2411    0.2835 C   0  0  0  0  0  0  0  0  0  0  0  0
    4.4961   -0.2411    0.2835 C   0  0  0  0  0  0  0  0  0  0  0  0
    5.1708   -0.8493    1.3370 C   0  0  0  0  0  0  0  0  0  0  0  0
    6.5612   -0.8490    1.3347 C   0  0  0  0  0  0  0  0  0  0  0  0
    7.2357   -1.4325    2.3476 O   0  0  0  0  0  0  0  0  0  0  0  0
    7.5739   -0.7110    3.4375 C   0  0  0  0  0  0  0  0  0  0  0  0
    8.2690   -1.3185    4.4779 C   0  0  0  0  0  0  0  0  0  0  0  0
    8.6142   -0.5701    5.5995 C   0  0  0  0  0  0  0  0  0  0  0  0
    8.2650    0.7746    5.6738 C   0  0  0  0  0  0  0  0  0  0  0  0
    7.5689    1.3753    4.6300 C   0  0  0  0  0  0  0  0  0  0  0  0
    7.2207    0.6329    3.5060 C   0  0  0  0  0  0  0  0  0  0  0  0
    7.2663   -0.2497    0.2959 C   0  0  0  0  0  0  0  0  0  0  0  0
    6.5801    0.3566   -0.7518 C   0  0  0  0  0  0  0  0  0  0  0  0
    5.1890    0.3619   -0.7614 C   0  0  0  0  0  0  0  0  0  0  0  0
  1  2  1  0
  2  3  1  0
  2  4  1  0
  1  5  1  0
  5  6  1  0
  6  7  2  0
  6  8  1  0
  8  9  1  0
  9 10  1  0
 10 11  2  0
 10 12  1  0
 12 13  1  0
  9 14  1  0
 14 15  1  0
 15 16  2  0
 16 17  1  0
 17 18  1  0
 18 19  1  0
 19 20  2  0
 20 21  1  0
 21 22  2  0
 22 23  1  0
 23 24  2  0
 24 19  1  0
 17 25  2  0
 25 26  1  0
 26 27  2  0
 27 15  1  0
M  END
$$$$
s_188690b____10719888____17513482
     RDKit          3D

 23 23  0  0  0  0  0  0  0  0999 V2000
    4.1886   -2.6862   -0.5995 O   0  0  0  0  0  0  0  0  0  0  0  0
    4.7389   -1.6699   -0.2411 C   0  0  0  0  0  0  0  0  0  0  0  0
    5.9323   -1.7026    0.1292 O   0  0  0  0  0  0  0  0  0  0  0  0
    3.9789   -0.3536   -0.2411 C   0  0  0  0  0  0  0  0  0  0  0  0
    3.1050   -0.2731    1.0000 C   0  0  0  0  0  0  0  0  0  0  0  0
    2.3700    1.0000    1.0000 N   0  0  0  0  0  0  0  0  0  0  0  0
    1.0000    1.0000    1.0000 C   0  0  0  0  0  0  0  0  0  0  0  0
    0.4000   -0.0392    1.0000 O   0  0  0  0  0  0  0  0  0  0  0  0
    0.2400    2.3164    1.0000 C   0  0  0  0  0  0  0  0  0  0  0  0
   -1.2052    2.0477    1.0000 N   0  0  0  0  0  0  0  0  0  0  0  0
   -1.9871    2.5058    2.0275 C   0  0  0  0  0  0  0  0  0  0  0  0
   -1.4922    3.1263    2.9275 O   0  0  0  0  0  0  0  0  0  0  0  0
   -3.4815    2.2281    2.0275 C   0  0  0  0  0  0  0  0  0  0  0  0
    0.6072    3.1134   -0.2411 C   0  0  0  0  0  0  0  0  0  0  0  0
   -0.1528    4.4298   -0.2411 C   0  0  0  0  0  0  0  0  0  0  0  0
    0.4132    5.5469    0.3644 C   0  0  0  0  0  0  0  0  0  0  0  0
   -0.2782    6.7537    0.3662 C   0  0  0  0  0  0  0  0  0  0  0  0
   -1.5287    6.8280   -0.2391 C   0  0  0  0  0  0  0  0  0  0  0  0
   -2.2034    7.9972   -0.2393 O   0  0  0  0  0  0  0  0  0  0  0  0
   -2.0995    5.7138   -0.8457 C   0  0  0  0  0  0  0  0  0  0  0  0
   -1.4035    4.5097   -0.8449 C   0  0  0  0  0  0  0  0  0  0  0  0
    3.9789   -0.3536    2.2411 C   0  0  0  0  0  0  0  0  0  0  0  0
    3.1050   -0.2731   -1.4821 C   0  0  0  0  0  0  0  0  0  0  0  0
  1  2  1  0
  2  3  2  0
  2  4  1  0
  4  5  1  0
  5  6  1  0
  6  7  1  0
  7  8  2  0
  7  9  1  0
  9 10  1  0
 10 11  1  0
 11 12  2  0
 11 13  1  0
  9 14  1  0
 14 15  1  0
 15 16  2  0
 16 17  1  0
 17 18  2  0
 18 19  1  0
 18 20  1  0
 20 21  2  0
 21 15  1  0
  5 22  1  0
  4 23  1  0
M  CHG  1   1  -1
M  END
$$$$
s_22____57764____17513450
     RDKit          3D

 20 20  0  0  0  0  0  0  0  0999 V2000
    2.9700    2.0392    1.0000 O   0  0  0  0  0  0  0  0  0  0  0  0
    2.3700    1.0000    1.0000 C   0  0  0  0  0  0  0  0  0  0  0  0
    1.0000    1.0000    1.0000 N   0  0  0  0  0  0  0  0  0  0  0  0
    0.2650    2.2731    1.0000 C   0  0  0  0  0  0  0  0  0  0  0  0
   -1.2294    1.9953    1.0000 C   0  0  0  0  0  0  0  0  0  0  0  0
   -1.9894    3.3117    1.0000 C   0  0  0  0  0  0  0  0  0  0  0  0
   -3.4838    3.0339    1.0000 C   0  0  0  0  0  0  0  0  0  0  0  0
    3.1300   -0.3164    1.0000 C   0  0  0  0  0  0  0  0  0  0  0  0
    4.5752   -0.0477    1.0000 N   0  0  0  0  0  0  0  0  0  0  0  0
    5.3571   -0.5058    2.0275 C   0  0  0  0  0  0  0  0  0  0  0  0
    4.8622   -1.1263    2.9275 O   0  0  0  0  0  0  0  0  0  0  0  0
    6.8515   -0.2281    2.0275 C   0  0  0  0  0  0  0  0  0  0  0  0
    2.7628   -1.1134   -0.2411 C   0  0  0  0  0  0  0  0  0  0  0  0
    3.5228   -2.4298   -0.2411 C   0  0  0  0  0  0  0  0  0  0  0  0
    2.9568   -3.5469    0.3644 C   0  0  0  0  0  0  0  0  0  0  0  0
    3.6482   -4.7537    0.3662 C   0  0  0  0  0  0  0  0  0  0  0  0
    4.8987   -4.8280   -0.2391 C   0  0  0  0  0  0  0  0  0  0  0  0
    5.5734   -5.9972   -0.2393 O   0  0  0  0  0  0  0  0  0  0  0  0
    5.4695   -3.7138   -0.8457 C   0  0  0  0  0  0  0  0  0  0  0  0
    4.7735   -2.5097   -0.8449 C   0  0  0  0  0  0  0  0  0  0  0  0
  1  2  2  0
  2  3  1  0
  3  4  1  0
  4  5  1  0
  5  6  1  0
  6  7  1  0
  2  8  1  0
  8  9  1  0
  9 10  1  0
 10 11  2  0
 10 12  1  0
  8 13  1  0
 13 14  1  0
 14 15  2  0
 15 16  1  0
 16 17  2  0
 17 18  1  0
 17 19  1  0
 19 20  2  0
 20 14  1  0
M  END
$$$$
s_22____12206138____9320452
     RDKit          3D

 21 22  0  0  0  0  0  0  0  0999 V2000
    3.1767    1.0994   -1.2506 O   0  0  0  0  0  0  0  0  0  0  0  0
    2.9767    1.7165   -0.2411 C   0  0  0  0  0  0  0  0  0  0  0  0
    3.1950    3.0078   -0.2086 O   0  0  0  0  0  0  0  0  0  0  0  0
    3.6683    3.6772   -1.3681 C   0  0  0  0  0  0  0  0  0  0  0  0
    2.4700    1.0000    1.0000 C   0  0  0  0  0  0  0  0  0  0  0  0
    1.0000    1.0000    1.0000 N   0  0  0  0  0  0  0  0  0  0  0  0
    0.3150    1.0000    2.1865 C   0  0  0  0  0  0  0  0  0  0  0  0
    0.9150    1.0000    3.2257 O   0  0  0  0  0  0  0  0  0  0  0  0
   -1.2050    1.0000    2.1865 C   0  0  0  0  0  0  0  0  0  0  0  0
   -1.7115   -0.4327    2.1865 C   0  0  0  0  0  0  0  0  0  0  0  0
   -1.2910   -1.2732    3.3585 C   0  0  0  0  0  0  0  0  0  0  0  0
   -0.6764   -1.5068    2.0082 C   0  0  0  0  0  0  0  0  0  0  0  0
   -3.0898   -0.7280    1.6176 C   0  0  0  0  0  0  0  0  0  0  0  0
    2.9767   -0.4331    1.0000 C   0  0  0  0  0  0  0  0  0  0  0  0
    4.3942   -0.4694    1.5486 C   0  0  0  0  0  0  0  0  0  0  0  0
    4.6078   -0.4825    2.9234 C   0  0  0  0  0  0  0  0  0  0  0  0
    3.5678   -0.4626    3.7844 O   0  0  0  0  0  0  0  0  0  0  0  0
    5.9051   -0.5156    3.4255 C   0  0  0  0  0  0  0  0  0  0  0  0
    6.9885   -0.5362    2.5525 C   0  0  0  0  0  0  0  0  0  0  0  0
    6.7743   -0.5238    1.1778 C   0  0  0  0  0  0  0  0  0  0  0  0
    5.4773   -0.4910    0.6761 C   0  0  0  0  0  0  0  0  0  0  0  0
  1  2  2  0
  2  3  1  0
  3  4  1  0
  2  5  1  0
  5  6  1  0
  6  7  1  0
  7  8  2  0
  7  9  1  0
  9 10  1  0
 10 11  1  0
 11 12  1  0
 12 10  1  0
 10 13  1  0
  5 14  1  0
 14 15  1  0
 15 16  2  0
 16 17  1  0
 16 18  1  0
 18 19  2  0
 19 20  1  0
 20 21  2  0
 21 15  1  0
M  END
$$$$
s_2708____12635628____12427832
     RDKit          3D

 22 22  0  0  0  0  0  0  0  0999 V2000
   -4.7794    2.3450   -3.0168 Br  0  0  0  0  0  0  0  0  0  0  0  0
   -3.2258    3.0487   -2.0512 C   0  0  0  0  0  0  0  0  0  0  0  0
   -2.7654    2.3905   -0.9161 C   0  0  0  0  0  0  0  0  0  0  0  0
   -1.6618    2.9031   -0.2413 C   0  0  0  0  0  0  0  0  0  0  0  0
   -1.0217    4.0548   -0.6863 C   0  0  0  0  0  0  0  0  0  0  0  0
   -1.4992    4.6978   -1.8236 C   0  0  0  0  0  0  0  0  0  0  0  0
   -2.6008    4.2022   -2.5130 C   0  0  0  0  0  0  0  0  0  0  0  0
   -1.1550    2.1865    1.0000 C   0  0  0  0  0  0  0  0  0  0  0  0
    0.3150    2.1865    1.0000 N   0  0  0  0  0  0  0  0  0  0  0  0
    1.0000    1.0000    1.0000 C   0  0  0  0  0  0  0  0  0  0  0  0
    0.4000   -0.0392    1.0000 O   0  0  0  0  0  0  0  0  0  0  0  0
    2.3700    1.0000    1.0000 N   0  0  0  0  0  0  0  0  0  0  0  0
    3.1050   -0.2731    1.0000 C   0  0  0  0  0  0  0  0  0  0  0  0
    3.1428   -0.8363   -0.4113 C   0  0  0  0  0  0  0  0  0  0  0  0
    3.9028   -2.1526   -0.4113 C   0  0  0  0  0  0  0  0  0  0  0  0
    5.2290   -1.9335    0.0466 O   0  0  0  0  0  0  0  0  0  0  0  0
    3.9406   -2.7158   -1.8226 C   0  0  0  0  0  0  0  0  0  0  0  0
    4.6056   -3.8677   -1.8226 F   0  0  0  0  0  0  0  0  0  0  0  0
    2.6985   -2.9211   -2.2515 F   0  0  0  0  0  0  0  0  0  0  0  0
   -1.6617    2.9030    2.2411 C   0  0  0  0  0  0  0  0  0  0  0  0
   -3.0817    2.9030    2.2411 O   0  0  0  0  0  0  0  0  0  0  0  0
   -3.5550    3.5724    3.4005 C   0  0  0  0  0  0  0  0  0  0  0  0
  1  2  1  0
  2  3  2  0
  3  4  1  0
  4  5  2  0
  5  6  1  0
  6  7  2  0
  7  2  1  0
  4  8  1  0
  8  9  1  0
  9 10  1  0
 10 11  2  0
 10 12  1  0
 12 13  1  0
 13 14  1  0
 14 15  1  0
 15 16  1  0
 15 17  1  0
 17 18  1  0
 17 19  1  0
  8 20  1  0
 20 21  1  0
 21 22  1  0
M  END
$$$$
s_22____13811180____5637262
     RDKit          3D

 22 23  0  0  0  0  0  0  0  0999 V2000
    4.6075    2.5242    2.1085 F   0  0  0  0  0  0  0  0  0  0  0  0
    4.2177    1.3941    2.6912 C   0  0  0  0  0  0  0  0  0  0  0  0
    2.8827    1.0098    2.6181 C   0  0  0  0  0  0  0  0  0  0  0  0
    2.4524   -0.1682    3.2196 C   0  0  0  0  0  0  0  0  0  0  0  0
    3.3738   -0.9610    3.8970 C   0  0  0  0  0  0  0  0  0  0  0  0
    4.7072   -0.5718    3.9669 C   0  0  0  0  0  0  0  0  0  0  0  0
    5.5860   -1.3302    4.6146 F   0  0  0  0  0  0  0  0  0  0  0  0
    5.1420    0.6052    3.3676 C   0  0  0  0  0  0  0  0  0  0  0  0
    1.8776    1.8776    1.8776 C   0  0  0  0  0  0  0  0  0  0  0  0
    1.0385    2.5935    2.8494 N   0  0  0  0  0  0  0  0  0  0  0  0
    1.0211    3.9634    2.8612 C   0  0  0  0  0  0  0  0  0  0  0  0
    1.6907    4.5788    2.0783 O   0  0  0  0  0  0  0  0  0  0  0  0
    0.1535    4.7037    3.8661 C   0  0  0  0  0  0  0  0  0  0  0  0
    1.0000    1.0000    1.0000 C   0  0  0  0  0  0  0  0  0  0  0  0
    1.8776    0.1224    0.1224 C   0  0  0  0  0  0  0  0  0  0  0  0
    2.7405    0.6173   -0.5487 O   0  0  0  0  0  0  0  0  0  0  0  0
    1.6833   -1.2335    0.0977 N   0  0  0  0  0  0  0  0  0  0  0  0
    2.5321   -2.0823   -0.7511 C   0  0  0  0  0  0  0  0  0  0  0  0
    3.2661   -3.0788    0.1107 C   0  0  0  0  0  0  0  0  0  0  0  0
    3.0321   -4.0802   -1.0002 C   0  0  0  0  0  0  0  0  0  0  0  0
    2.7342   -5.2859   -0.5235 F   0  0  0  0  0  0  0  0  0  0  0  0
    1.7818   -3.2795   -1.2865 C   0  0  0  0  0  0  0  0  0  0  0  0
  1  2  1  0
  2  3  2  0
  3  4  1  0
  4  5  2  0
  5  6  1  0
  6  7  1  0
  6  8  2  0
  8  2  1  0
  3  9  1  0
  9 10  1  0
 10 11  1  0
 11 12  2  0
 11 13  1  0
  9 14  1  0
 14 15  1  0
 15 16  2  0
 15 17  1  0
 17 18  1  0
 18 19  1  0
 19 20  1  0
 20 21  1  0
 20 22  1  0
 22 18  1  0
M  END
$$$$
s_22____3048356____16887748
     RDKit          3D

 24 25  0  0  0  0  0  0  0  0999 V2000
    3.8386   -0.9114    0.7812 O   0  0  0  0  0  0  0  0  0  0  0  0
    2.9767   -0.2411    0.2835 C   0  0  0  0  0  0  0  0  0  0  0  0
    2.4493   -0.5944   -0.9306 N   0  0  0  0  0  0  0  0  0  0  0  0
    2.8593   -1.8521   -1.5722 C   0  0  0  0  0  0  0  0  0  0  0  0
    1.7809   -2.4536   -2.4342 C   0  0  0  0  0  0  0  0  0  0  0  0
    2.0491   -3.0153   -1.0695 C   0  0  0  0  0  0  0  0  0  0  0  0
    0.4905   -1.6534   -2.4403 C   0  0  0  0  0  0  0  0  0  0  0  0
    2.4700    1.0000    1.0000 C   0  0  0  0  0  0  0  0  0  0  0  0
    1.0000    1.0000    1.0000 N   0  0  0  0  0  0  0  0  0  0  0  0
    0.3150    1.0000    2.1865 C   0  0  0  0  0  0  0  0  0  0  0  0
    0.9150    1.0000    3.2257 O   0  0  0  0  0  0  0  0  0  0  0  0
   -1.2050    1.0000    2.1865 C   0  0  0  0  0  0  0  0  0  0  0  0
   -1.6783    1.0000    3.5252 O   0  0  0  0  0  0  0  0  0  0  0  0
   -3.0983    1.0000    3.5252 C   0  0  0  0  0  0  0  0  0  0  0  0
   -3.6050    1.0000    4.9583 C   0  0  0  0  0  0  0  0  0  0  0  0
   -3.6050    2.2411    2.8087 C   0  0  0  0  0  0  0  0  0  0  0  0
    2.9767    2.2411    0.2835 C   0  0  0  0  0  0  0  0  0  0  0  0
    2.4700    3.4822    1.0000 C   0  0  0  0  0  0  0  0  0  0  0  0
    3.2306    4.0410    2.0218 C   0  0  0  0  0  0  0  0  0  0  0  0
    2.7714    5.1770    2.6798 C   0  0  0  0  0  0  0  0  0  0  0  0
    1.5555    5.7409    2.3064 C   0  0  0  0  0  0  0  0  0  0  0  0
    1.1058    6.8432    2.9425 O   0  0  0  0  0  0  0  0  0  0  0  0
    0.7907    5.1858    1.2854 C   0  0  0  0  0  0  0  0  0  0  0  0
    1.2550    4.0500    0.6306 C   0  0  0  0  0  0  0  0  0  0  0  0
  1  2  2  0
  2  3  1  0
  3  4  1  0
  4  5  1  0
  5  6  1  0
  6  4  1  0
  5  7  1  0
  2  8  1  0
  8  9  1  0
  9 10  1  0
 10 11  2  0
 10 12  1  0
 12 13  1  0
 13 14  1  0
 14 15  1  0
 14 16  1  0
  8 17  1  0
 17 18  1  0
 18 19  2  0
 19 20  1  0
 20 21  2  0
 21 22  1  0
 21 23  1  0
 23 24  2  0
 24 18  1  0
M  END
$$$$
s_240690a____16979978____7408870
     RDKit          3D

 23 23  0  0  0  0  0  0  0  0999 V2000
    0.4000    1.0000   -0.0392 O   0  0  0  0  0  0  0  0  0  0  0  0
    1.0000    1.0000    1.0000 C   0  0  0  0  0  0  0  0  0  0  0  0
    0.3150    1.0000    2.1865 N   0  0  0  0  0  0  0  0  0  0  0  0
   -1.1550    1.0000    2.1865 C   0  0  0  0  0  0  0  0  0  0  0  0
   -1.6617    1.0000    3.6195 C   0  0  0  0  0  0  0  0  0  0  0  0
   -1.1717   -0.2002    4.3125 N   0  0  0  0  0  0  0  0  0  0  0  0
   -3.1817    1.0000    3.6195 C   0  0  0  0  0  0  0  0  0  0  0  0
   -3.6550    1.0000    4.9583 O   0  0  0  0  0  0  0  0  0  0  0  0
   -1.1550    2.2411    4.3361 C   0  0  0  0  0  0  0  0  0  0  0  0
    2.5200    1.0000    1.0000 C   0  0  0  0  0  0  0  0  0  0  0  0
    3.0267    1.4309   -0.3667 C   0  0  0  0  0  0  0  0  0  0  0  0
    4.4967    1.4309   -0.3667 N   0  0  0  0  0  0  0  0  0  0  0  0
    5.1817    0.6294   -1.2415 C   0  0  0  0  0  0  0  0  0  0  0  0
    4.5817   -0.0727   -2.0077 O   0  0  0  0  0  0  0  0  0  0  0  0
    6.7017    0.6294   -1.2415 C   0  0  0  0  0  0  0  0  0  0  0  0
    2.5200    2.8301   -0.6769 C   0  0  0  0  0  0  0  0  0  0  0  0
    2.8191    3.8745    0.1918 C   0  0  0  0  0  0  0  0  0  0  0  0
    2.3582    5.1565   -0.0884 C   0  0  0  0  0  0  0  0  0  0  0  0
    1.6033    5.3780   -1.2359 C   0  0  0  0  0  0  0  0  0  0  0  0
    1.1538    6.6206   -1.5114 O   0  0  0  0  0  0  0  0  0  0  0  0
    0.0857    6.8019   -2.4295 C   0  0  0  0  0  0  0  0  0  0  0  0
    1.3011    4.3369   -2.1078 C   0  0  0  0  0  0  0  0  0  0  0  0
    1.7649    3.0570   -1.8230 C   0  0  0  0  0  0  0  0  0  0  0  0
  1  2  2  0
  2  3  1  0
  3  4  1  0
  4  5  1  0
  5  6  1  0
  5  7  1  0
  7  8  1  0
  5  9  1  0
  2 10  1  0
 10 11  1  0
 11 12  1  0
 12 13  1  0
 13 14  2  0
 13 15  1  0
 11 16  1  0
 16 17  2  0
 17 18  1  0
 18 19  2  0
 19 20  1  0
 20 21  1  0
 19 22  1  0
 22 23  2  0
 23 16  1  0
M  CHG  1   6   1
M  END
$$$$
s_11a____10903210____16717356
     RDKit          3D

 25 25  0  0  0  0  0  0  0  0999 V2000
   -0.3868    1.6571   -0.7943 O   0  0  0  0  0  0  0  0  0  0  0  0
    0.7075    1.7208   -0.3059 C   0  0  0  0  0  0  0  0  0  0  0  0
    1.6931    2.4433   -0.9252 N   0  0  0  0  0  0  0  0  0  0  0  0
    1.4102    3.1404   -2.1881 C   0  0  0  0  0  0  0  0  0  0  0  0
    2.3295    2.6104   -3.2763 C   0  0  0  0  0  0  0  0  0  0  0  0
    3.0493    2.1954   -4.1283 C   0  0  0  0  0  0  0  0  0  0  0  0
    1.6455    4.6312   -2.0077 C   0  0  0  0  0  0  0  0  0  0  0  0
    1.3530    5.3520   -3.3135 C   0  0  0  0  0  0  0  0  0  0  0  0
    1.0000    1.0000    1.0000 C   0  0  0  0  0  0  0  0  0  0  0  0
    1.8487    1.8487    1.8487 N   0  0  0  0  0  0  0  0  0  0  0  0
    3.0831    1.4052    2.2442 C   0  0  0  0  0  0  0  0  0  0  0  0
    3.4716    0.3240    1.8978 O   0  0  0  0  0  0  0  0  0  0  0  0
    3.9607    2.2828    3.1218 C   0  0  0  0  0  0  0  0  0  0  0  0
    5.2236    1.5857    3.4047 N   0  0  0  0  0  0  0  0  0  0  0  0
    6.2255    1.5772    2.4703 C   0  0  0  0  0  0  0  0  0  0  0  0
    6.0722    2.1388    1.4210 O   0  0  0  0  0  0  0  0  0  0  0  0
    7.5314    0.8564    2.7629 C   0  0  0  0  0  0  0  0  0  0  0  0
   -0.3059    0.7075    1.7208 C   0  0  0  0  0  0  0  0  0  0  0  0
   -0.0133   -0.0134    3.0267 C   0  0  0  0  0  0  0  0  0  0  0  0
    0.1949    0.7274    4.1855 C   0  0  0  0  0  0  0  0  0  0  0  0
    0.4621    0.0721    5.3829 C   0  0  0  0  0  0  0  0  0  0  0  0
    0.5173   -1.3180    5.4060 C   0  0  0  0  0  0  0  0  0  0  0  0
    0.7767   -1.9580    6.5658 O   0  0  0  0  0  0  0  0  0  0  0  0
    0.3102   -2.0634    4.2499 C   0  0  0  0  0  0  0  0  0  0  0  0
    0.0429   -1.4030    3.0554 C   0  0  0  0  0  0  0  0  0  0  0  0
  1  2  2  0
  2  3  1  0
  3  4  1  0
  4  5  1  0
  5  6  3  0
  4  7  1  0
  7  8  1  0
  2  9  1  0
  9 10  1  0
 10 11  1  0
 11 12  2  0
 11 13  1  0
 13 14  1  0
 14 15  1  0
 15 16  2  0
 15 17  1  0
  9 18  1  0
 18 19  1  0
 19 20  2  0
 20 21  1  0
 21 22  2  0
 22 23  1  0
 22 24  1  0
 24 25  2  0
 25 19  1  0
M  END
$$$$
s_22____57678____219891
     RDKit          3D

 19 19  0  0  0  0  0  0  0  0999 V2000
    4.3356    3.7506   -0.8934 O   0  0  0  0  0  0  0  0  0  0  0  0
    5.0404    2.8242   -0.6018 C   0  0  0  0  0  0  0  0  0  0  0  0
    4.4855    1.6046   -0.3161 N   0  0  0  0  0  0  0  0  0  0  0  0
    3.0267    1.4309   -0.3667 C   0  0  0  0  0  0  0  0  0  0  0  0
    2.6784    0.3666   -1.3950 C   0  0  0  0  0  0  0  0  0  0  0  0
    3.1262   -0.9380   -1.2150 C   0  0  0  0  0  0  0  0  0  0  0  0
    2.8060   -1.9086   -2.1588 C   0  0  0  0  0  0  0  0  0  0  0  0
    2.0424   -1.5717   -3.2714 C   0  0  0  0  0  0  0  0  0  0  0  0
    1.6002   -0.2654   -3.4405 C   0  0  0  0  0  0  0  0  0  0  0  0
    1.9142    0.7144   -2.5044 C   0  0  0  0  0  0  0  0  0  0  0  0
    2.5200    1.0000    1.0000 C   0  0  0  0  0  0  0  0  0  0  0  0
    1.0000    1.0000    1.0000 C   0  0  0  0  0  0  0  0  0  0  0  0
    0.4000    1.0000   -0.0392 O   0  0  0  0  0  0  0  0  0  0  0  0
    0.3150    1.0000    2.1865 N   0  0  0  0  0  0  0  0  0  0  0  0
   -1.1550    1.0000    2.1865 C   0  0  0  0  0  0  0  0  0  0  0  0
   -1.6617   -0.2411    2.9030 C   0  0  0  0  0  0  0  0  0  0  0  0
   -3.1817   -0.2411    2.9030 C   0  0  0  0  0  0  0  0  0  0  0  0
   -1.6617    2.2411    2.9030 C   0  0  0  0  0  0  0  0  0  0  0  0
    6.4000    2.9861   -0.5546 N   0  0  0  0  0  0  0  0  0  0  0  0
  1  2  2  0
  2  3  1  0
  3  4  1  0
  4  5  1  0
  5  6  2  0
  6  7  1  0
  7  8  2  0
  8  9  1  0
  9 10  2  0
 10  5  1  0
  4 11  1  0
 11 12  1  0
 12 13  2  0
 12 14  1  0
 14 15  1  0
 15 16  1  0
 16 17  1  0
 15 18  1  0
  2 19  1  0
M  END
$$$$
s_11a____8846298____217443
     RDKit          3D

 22 22  0  0  0  0  0  0  0  0999 V2000
    0.4000    1.0000   -0.0392 O   0  0  0  0  0  0  0  0  0  0  0  0
    1.0000    1.0000    1.0000 C   0  0  0  0  0  0  0  0  0  0  0  0
    0.3150    1.0000    2.1865 N   0  0  0  0  0  0  0  0  0  0  0  0
   -1.1550    1.0000    2.1865 C   0  0  0  0  0  0  0  0  0  0  0  0
   -1.6617    2.2411    2.9030 C   0  0  0  0  0  0  0  0  0  0  0  0
   -2.0417    3.1719    3.4404 N   0  0  0  0  0  0  0  0  0  0  0  0
   -1.6617   -0.2411    2.9030 C   0  0  0  0  0  0  0  0  0  0  0  0
   -3.1817   -0.2411    2.9030 C   0  0  0  0  0  0  0  0  0  0  0  0
   -1.1550   -1.4821    2.1865 C   0  0  0  0  0  0  0  0  0  0  0  0
    2.5200    1.0000    1.0000 C   0  0  0  0  0  0  0  0  0  0  0  0
    3.0267    1.4309   -0.3667 C   0  0  0  0  0  0  0  0  0  0  0  0
    4.3972    1.9473   -0.2408 N   0  0  0  0  0  0  0  0  0  0  0  0
    4.6793    3.2374   -0.6054 C   0  0  0  0  0  0  0  0  0  0  0  0
    3.8076    3.9459   -1.0276 O   0  0  0  0  0  0  0  0  0  0  0  0
    6.0965    3.7714   -0.4752 C   0  0  0  0  0  0  0  0  0  0  0  0
    3.0192    0.2382   -1.3091 C   0  0  0  0  0  0  0  0  0  0  0  0
    3.7377   -0.9062   -0.9785 C   0  0  0  0  0  0  0  0  0  0  0  0
    3.7282   -1.9942   -1.8446 C   0  0  0  0  0  0  0  0  0  0  0  0
    3.0009   -1.9261   -3.0288 C   0  0  0  0  0  0  0  0  0  0  0  0
    2.2805   -0.7818   -3.3575 C   0  0  0  0  0  0  0  0  0  0  0  0
    2.2911    0.3070   -2.4920 C   0  0  0  0  0  0  0  0  0  0  0  0
    2.9956   -3.1182   -3.9722 C   0  0  0  0  0  0  0  0  0  0  0  0
  1  2  2  0
  2  3  1  0
  3  4  1  0
  4  5  1  0
  5  6  3  0
  4  7  1  0
  7  8  1  0
  7  9  1  0
  2 10  1  0
 10 11  1  0
 11 12  1  0
 12 13  1  0
 13 14  2  0
 13 15  1  0
 11 16  1  0
 16 17  2  0
 17 18  1  0
 18 19  2  0
 19 20  1  0
 20 21  2  0
 21 16  1  0
 19 22  1  0
M  END
$$$$
s_22____6406230____17057108
     RDKit          3D

 25 25  0  0  0  0  0  0  0  0999 V2000
    0.3056    2.8514   -0.2902 O   0  0  0  0  0  0  0  0  0  0  0  0
    0.7075    1.7208   -0.3059 C   0  0  0  0  0  0  0  0  0  0  0  0
    0.9026    1.0797   -1.5008 N   0  0  0  0  0  0  0  0  0  0  0  0
    0.3226    1.6309   -2.7339 C   0  0  0  0  0  0  0  0  0  0  0  0
   -0.9998    0.9402   -3.0247 C   0  0  0  0  0  0  0  0  0  0  0  0
   -1.7113    0.7497   -1.8106 O   0  0  0  0  0  0  0  0  0  0  0  0
   -1.8254    1.8021   -3.9659 C   0  0  0  0  0  0  0  0  0  0  0  0
   -0.7350   -0.4085   -3.6737 C   0  0  0  0  0  0  0  0  0  0  0  0
    1.6920   -0.1594   -1.5498 C   0  0  0  0  0  0  0  0  0  0  0  0
    1.0000    1.0000    1.0000 C   0  0  0  0  0  0  0  0  0  0  0  0
    1.8487    1.8487    1.8487 N   0  0  0  0  0  0  0  0  0  0  0  0
    3.0831    1.4052    2.2442 C   0  0  0  0  0  0  0  0  0  0  0  0
    3.5091    0.3643    1.8258 O   0  0  0  0  0  0  0  0  0  0  0  0
    3.9131    2.2317    3.2129 C   0  0  0  0  0  0  0  0  0  0  0  0
    5.0002    1.3600    3.8203 C   0  0  0  0  0  0  0  0  0  0  0  0
    5.8302    2.1864    4.7890 C   0  0  0  0  0  0  0  0  0  0  0  0
    4.3616    0.1981    4.5636 C   0  0  0  0  0  0  0  0  0  0  0  0
   -0.3059    0.7075    1.7208 C   0  0  0  0  0  0  0  0  0  0  0  0
   -0.1561   -0.5602    2.5461 C   0  0  0  0  0  0  0  0  0  0  0  0
   -0.4624   -1.7901    1.9731 C   0  0  0  0  0  0  0  0  0  0  0  0
   -0.3262   -2.9527    2.7243 C   0  0  0  0  0  0  0  0  0  0  0  0
    0.1159   -2.8702    4.0409 C   0  0  0  0  0  0  0  0  0  0  0  0
    0.2492   -3.9960    4.7736 O   0  0  0  0  0  0  0  0  0  0  0  0
    0.4233   -1.6427    4.6189 C   0  0  0  0  0  0  0  0  0  0  0  0
    0.2856   -0.4834    3.8630 C   0  0  0  0  0  0  0  0  0  0  0  0
  1  2  2  0
  2  3  1  0
  3  4  1  0
  4  5  1  0
  5  6  1  0
  5  7  1  0
  5  8  1  0
  3  9  1  0
  2 10  1  0
 10 11  1  0
 11 12  1  0
 12 13  2  0
 12 14  1  0
 14 15  1  0
 15 16  1  0
 15 17  1  0
 10 18  1  0
 18 19  1  0
 19 20  2  0
 20 21  1  0
 21 22  2  0
 22 23  1  0
 22 24  1  0
 24 25  2  0
 25 19  1  0
M  END
$$$$
s_527a____9051020____12624300
     RDKit          3D

 22 23  0  0  0  0  0  0  0  0999 V2000
   -3.2980    2.2225    6.9961 Br  0  0  0  0  0  0  0  0  0  0  0  0
   -2.5957    0.9216    5.7095 C   0  0  0  0  0  0  0  0  0  0  0  0
   -2.1665    1.3534    4.4593 C   0  0  0  0  0  0  0  0  0  0  0  0
   -1.6712    0.4174    3.5567 C   0  0  0  0  0  0  0  0  0  0  0  0
   -1.6020   -0.9312    3.8893 C   0  0  0  0  0  0  0  0  0  0  0  0
   -2.0373   -1.3417    5.1451 C   0  0  0  0  0  0  0  0  0  0  0  0
   -2.5358   -0.4224    6.0622 C   0  0  0  0  0  0  0  0  0  0  0  0
   -1.2007    0.8853    2.1890 C   0  0  0  0  0  0  0  0  0  0  0  0
   -1.6203   -0.0854    1.1679 N   0  0  0  0  0  0  0  0  0  0  0  0
   -2.4417    0.3086    0.1447 C   0  0  0  0  0  0  0  0  0  0  0  0
   -2.8186    1.4461    0.0820 O   0  0  0  0  0  0  0  0  0  0  0  0
   -2.8756   -0.6952   -0.9111 C   0  0  0  0  0  0  0  0  0  0  0  0
    0.3150    1.0000    2.1865 C   0  0  0  0  0  0  0  0  0  0  0  0
    0.9116    1.0906    3.2237 O   0  0  0  0  0  0  0  0  0  0  0  0
    1.0000    1.0000    1.0000 N   0  0  0  0  0  0  0  0  0  0  0  0
    2.4700    1.0000    1.0000 C   0  0  0  0  0  0  0  0  0  0  0  0
    2.9765   -0.4273    1.1249 C   0  0  0  0  0  0  0  0  0  0  0  0
    2.4595   -1.4812    0.1583 C   0  0  0  0  0  0  0  0  0  0  0  0
    2.9161   -1.1432   -1.2516 C   0  0  0  0  0  0  0  0  0  0  0  0
    2.4333   -2.1274   -2.1542 O   0  0  0  0  0  0  0  0  0  0  0  0
    3.2573   -0.8998    2.5231 C   0  0  0  0  0  0  0  0  0  0  0  0
    4.3948   -0.5939    1.5914 C   0  0  0  0  0  0  0  0  0  0  0  0
  1  2  1  0
  2  3  2  0
  3  4  1  0
  4  5  2  0
  5  6  1  0
  6  7  2  0
  7  2  1  0
  4  8  1  0
  8  9  1  0
  9 10  1  0
 10 11  2  0
 10 12  1  0
  8 13  1  0
 13 14  2  0
 13 15  1  0
 15 16  1  0
 16 17  1  0
 17 18  1  0
 18 19  1  0
 19 20  1  0
 17 21  1  0
 21 22  1  0
 22 17  1  0
M  END
$$$$
s_512____214534____9866152
     RDKit          3D

 20 20  0  0  0  0  0  0  0  0999 V2000
    4.4099    2.9974    4.6244 S   0  0  0  0  0  0  0  0  0  0  0  0
    4.4972    2.3135    3.0679 C   0  0  0  0  0  0  0  0  0  0  0  0
    3.3584    2.7120    2.4334 C   0  0  0  0  0  0  0  0  0  0  0  0
    2.4929    3.5219    3.2164 C   0  0  0  0  0  0  0  0  0  0  0  0
    2.9116    3.8003    4.4823 C   0  0  0  0  0  0  0  0  0  0  0  0
    3.1050    2.2731    1.0000 C   0  0  0  0  0  0  0  0  0  0  0  0
    2.3700    1.0000    1.0000 N   0  0  0  0  0  0  0  0  0  0  0  0
    1.0000    1.0000    1.0000 C   0  0  0  0  0  0  0  0  0  0  0  0
    0.4000   -0.0392    1.0000 O   0  0  0  0  0  0  0  0  0  0  0  0
    0.3150    2.1865    1.0000 N   0  0  0  0  0  0  0  0  0  0  0  0
   -1.1550    2.1865    1.0000 C   0  0  0  0  0  0  0  0  0  0  0  0
   -1.6617    2.1865    2.4331 C   0  0  0  0  0  0  0  0  0  0  0  0
   -3.1817    2.1865    2.4331 C   0  0  0  0  0  0  0  0  0  0  0  0
   -3.6883    2.1865    3.8661 C   0  0  0  0  0  0  0  0  0  0  0  0
    3.1050   -0.2731    1.0000 C   0  0  0  0  0  0  0  0  0  0  0  0
    3.3583   -0.7118   -0.4331 C   0  0  0  0  0  0  0  0  0  0  0  0
    4.0933   -1.9849   -0.4331 N   0  0  0  0  0  0  0  0  0  0  0  0
    3.4083   -3.1714   -0.4331 C   0  0  0  0  0  0  0  0  0  0  0  0
    2.2083   -3.1714   -0.4331 O   0  0  0  0  0  0  0  0  0  0  0  0
    4.1683   -4.4877   -0.4331 C   0  0  0  0  0  0  0  0  0  0  0  0
  1  2  1  0
  2  3  2  0
  3  4  1  0
  4  5  2  0
  5  1  1  0
  3  6  1  0
  6  7  1  0
  7  8  1  0
  8  9  2  0
  8 10  1  0
 10 11  1  0
 11 12  1  0
 12 13  1  0
 13 14  1  0
  7 15  1  0
 15 16  1  0
 16 17  1  0
 17 18  1  0
 18 19  2  0
 18 20  1  0
M  END
$$$$
s_22____5002572____12624298
     RDKit          3D

 20 20  0  0  0  0  0  0  0  0999 V2000
   -4.9718    1.6148    2.2810 Br  0  0  0  0  0  0  0  0  0  0  0  0
   -3.5064    1.7632    0.9881 C   0  0  0  0  0  0  0  0  0  0  0  0
   -2.2091    1.9780    1.4403 C   0  0  0  0  0  0  0  0  0  0  0  0
   -1.1798    2.0818    0.5098 C   0  0  0  0  0  0  0  0  0  0  0  0
   -1.4333    1.9740   -0.8534 C   0  0  0  0  0  0  0  0  0  0  0  0
   -2.7384    1.7598   -1.2841 C   0  0  0  0  0  0  0  0  0  0  0  0
   -3.7819    1.6529   -0.3707 C   0  0  0  0  0  0  0  0  0  0  0  0
    0.2400    2.3164    1.0000 C   0  0  0  0  0  0  0  0  0  0  0  0
    0.9144    3.2716    0.1091 N   0  0  0  0  0  0  0  0  0  0  0  0
    1.3899    4.4555    0.6082 C   0  0  0  0  0  0  0  0  0  0  0  0
    1.2557    4.7128    1.7726 O   0  0  0  0  0  0  0  0  0  0  0  0
    2.0873    5.4432   -0.3129 C   0  0  0  0  0  0  0  0  0  0  0  0
    1.0000    1.0000    1.0000 C   0  0  0  0  0  0  0  0  0  0  0  0
    0.4000   -0.0392    1.0000 O   0  0  0  0  0  0  0  0  0  0  0  0
    2.3700    1.0000    1.0000 N   0  0  0  0  0  0  0  0  0  0  0  0
    3.1050   -0.2731    1.0000 C   0  0  0  0  0  0  0  0  0  0  0  0
    3.9789   -0.3536   -0.2411 C   0  0  0  0  0  0  0  0  0  0  0  0
    4.7389   -1.6699   -0.2411 C   0  0  0  0  0  0  0  0  0  0  0  0
    4.5764   -2.5143   -1.2161 C   0  0  0  0  0  0  0  0  0  0  0  0
    3.9789   -0.3536    2.2411 C   0  0  0  0  0  0  0  0  0  0  0  0
  1  2  1  0
  2  3  2  0
  3  4  1  0
  4  5  2  0
  5  6  1  0
  6  7  2  0
  7  2  1  0
  4  8  1  0
  8  9  1  0
  9 10  1  0
 10 11  2  0
 10 12  1  0
  8 13  1  0
 13 14  2  0
 13 15  1  0
 15 16  1  0
 16 17  1  0
 17 18  1  0
 18 19  2  0
 16 20  1  0
M  END
$$$$
s_2708____10336314____11569282
     RDKit          3D

 25 25  0  0  0  0  0  0  0  0999 V2000
    6.4398   -5.6737    1.0770 F   0  0  0  0  0  0  0  0  0  0  0  0
    5.9748   -4.4284    1.1295 C   0  0  0  0  0  0  0  0  0  0  0  0
    5.2999   -3.8951    0.0362 C   0  0  0  0  0  0  0  0  0  0  0  0
    4.8173   -2.5919    0.0981 C   0  0  0  0  0  0  0  0  0  0  0  0
    5.0147   -1.8386    1.2505 C   0  0  0  0  0  0  0  0  0  0  0  0
    5.6897   -2.3771    2.3407 C   0  0  0  0  0  0  0  0  0  0  0  0
    6.1741   -3.6796    2.2847 C   0  0  0  0  0  0  0  0  0  0  0  0
    4.4851   -0.4154    1.3116 C   0  0  0  0  0  0  0  0  0  0  0  0
    2.9767   -0.4276    1.1249 C   0  0  0  0  0  0  0  0  0  0  0  0
    2.3231   -1.0941    2.3245 C   0  0  0  0  0  0  0  0  0  0  0  0
    2.6799   -0.8132    3.4352 O   0  0  0  0  0  0  0  0  0  0  0  0
    1.3265   -2.0155    2.1376 N   0  0  0  0  0  0  0  0  0  0  0  0
    0.5452   -2.4962    3.2861 C   0  0  0  0  0  0  0  0  0  0  0  0
    1.0387   -2.5233    0.7885 C   0  0  0  0  0  0  0  0  0  0  0  0
    2.4700    1.0000    1.0000 C   0  0  0  0  0  0  0  0  0  0  0  0
    1.0000    1.0000    1.0000 N   0  0  0  0  0  0  0  0  0  0  0  0
    0.3150    1.0000    2.1865 C   0  0  0  0  0  0  0  0  0  0  0  0
    0.7944    1.5196    3.1561 O   0  0  0  0  0  0  0  0  0  0  0  0
   -0.9173    0.4068    2.2659 N   0  0  0  0  0  0  0  0  0  0  0  0
   -1.9181    0.9154    3.2150 C   0  0  0  0  0  0  0  0  0  0  0  0
   -2.8164   -0.2256    3.6641 C   0  0  0  0  0  0  0  0  0  0  0  0
   -3.5196   -1.1189    4.0156 C   0  0  0  0  0  0  0  0  0  0  0  0
   -2.7588    1.9864    2.5393 C   0  0  0  0  0  0  0  0  0  0  0  0
   -3.7936    2.5123    3.5207 C   0  0  0  0  0  0  0  0  0  0  0  0
   -1.8605    3.1273    2.0903 C   0  0  0  0  0  0  0  0  0  0  0  0
  1  2  1  0
  2  3  2  0
  3  4  1  0
  4  5  2  0
  5  6  1  0
  6  7  2  0
  7  2  1  0
  5  8  1  0
  8  9  1  0
  9 10  1  0
 10 11  2  0
 10 12  1  0
 12 13  1  0
 12 14  1  0
  9 15  1  0
 15 16  1  0
 16 17  1  0
 17 18  2  0
 17 19  1  0
 19 20  1  0
 20 21  1  0
 21 22  3  0
 20 23  1  0
 23 24  1  0
 23 25  1  0
M  END
$$$$
s_512____14933166____13941176
     RDKit          3D

 21 21  0  0  0  0  0  0  0  0999 V2000
   -3.1862    5.0380    5.9522 Cl  0  0  0  0  0  0  0  0  0  0  0  0
   -2.5887    4.2020    4.4989 C   0  0  0  0  0  0  0  0  0  0  0  0
   -1.6262    4.8079    3.6990 C   0  0  0  0  0  0  0  0  0  0  0  0
   -1.1570    4.1583    2.5618 C   0  0  0  0  0  0  0  0  0  0  0  0
   -1.6615    2.9027    2.2406 C   0  0  0  0  0  0  0  0  0  0  0  0
   -2.6241    2.2965    3.0400 C   0  0  0  0  0  0  0  0  0  0  0  0
   -3.0935    2.9462    4.1774 C   0  0  0  0  0  0  0  0  0  0  0  0
   -1.1550    2.1865    1.0000 C   0  0  0  0  0  0  0  0  0  0  0  0
    0.3150    2.1865    1.0000 N   0  0  0  0  0  0  0  0  0  0  0  0
    1.0000    1.0000    1.0000 C   0  0  0  0  0  0  0  0  0  0  0  0
    0.4000   -0.0392    1.0000 O   0  0  0  0  0  0  0  0  0  0  0  0
    2.3700    1.0000    1.0000 N   0  0  0  0  0  0  0  0  0  0  0  0
    3.1050   -0.2682    0.8890 C   0  0  0  0  0  0  0  0  0  0  0  0
    3.2502   -0.6431   -0.5768 C   0  0  0  0  0  0  0  0  0  0  0  0
    4.1685    0.3529   -1.2660 C   0  0  0  0  0  0  0  0  0  0  0  0
    4.5563   -0.1397   -2.4390 F   0  0  0  0  0  0  0  0  0  0  0  0
    3.5172    1.4964   -1.4589 F   0  0  0  0  0  0  0  0  0  0  0  0
    3.8427   -2.0386   -0.6866 C   0  0  0  0  0  0  0  0  0  0  0  0
   -1.6617    2.9030   -0.2411 C   0  0  0  0  0  0  0  0  0  0  0  0
   -2.6122    3.6317   -0.1672 O   0  0  0  0  0  0  0  0  0  0  0  0
   -1.0331    2.7169   -1.4441 N   0  0  0  0  0  0  0  0  0  0  0  0
  1  2  1  0
  2  3  2  0
  3  4  1  0
  4  5  2  0
  5  6  1  0
  6  7  2  0
  7  2  1  0
  5  8  1  0
  8  9  1  0
  9 10  1  0
 10 11  2  0
 10 12  1  0
 12 13  1  0
 13 14  1  0
 14 15  1  0
 15 16  1  0
 15 17  1  0
 14 18  1  0
  8 19  1  0
 19 20  2  0
 19 21  1  0
M  END
$$$$
s_22____9631018____16717358
     RDKit          3D

 26 27  0  0  0  0  0  0  0  0999 V2000
    2.7261   -3.2114    0.4420 F   0  0  0  0  0  0  0  0  0  0  0  0
    2.3308   -3.1244   -0.8269 C   0  0  0  0  0  0  0  0  0  0  0  0
    2.8381   -1.8817   -1.5444 C   0  0  0  0  0  0  0  0  0  0  0  0
    2.3481   -0.6814   -0.8514 N   0  0  0  0  0  0  0  0  0  0  0  0
    2.9767   -0.2411    0.2835 C   0  0  0  0  0  0  0  0  0  0  0  0
    3.9272   -0.8352    0.7118 O   0  0  0  0  0  0  0  0  0  0  0  0
    2.4700    1.0000    1.0000 C   0  0  0  0  0  0  0  0  0  0  0  0
    1.0000    1.0000    1.0000 N   0  0  0  0  0  0  0  0  0  0  0  0
    0.3150    1.0000    2.1865 C   0  0  0  0  0  0  0  0  0  0  0  0
    0.9150    1.0000    3.2257 O   0  0  0  0  0  0  0  0  0  0  0  0
   -1.2050    1.0000    2.1865 C   0  0  0  0  0  0  0  0  0  0  0  0
   -1.6950    1.0000    3.5724 N   0  0  0  0  0  0  0  0  0  0  0  0
   -1.7291    2.1684    4.2869 C   0  0  0  0  0  0  0  0  0  0  0  0
   -1.3590    3.1919    3.7814 O   0  0  0  0  0  0  0  0  0  0  0  0
   -2.2358    2.1684    5.7200 C   0  0  0  0  0  0  0  0  0  0  0  0
    2.9767    2.2411    0.2835 C   0  0  0  0  0  0  0  0  0  0  0  0
    2.4700    3.4822    1.0000 C   0  0  0  0  0  0  0  0  0  0  0  0
    3.2306    4.0410    2.0218 C   0  0  0  0  0  0  0  0  0  0  0  0
    2.7714    5.1770    2.6798 C   0  0  0  0  0  0  0  0  0  0  0  0
    1.5555    5.7409    2.3064 C   0  0  0  0  0  0  0  0  0  0  0  0
    1.1058    6.8432    2.9425 O   0  0  0  0  0  0  0  0  0  0  0  0
    0.7907    5.1858    1.2854 C   0  0  0  0  0  0  0  0  0  0  0  0
    1.2550    4.0500    0.6306 C   0  0  0  0  0  0  0  0  0  0  0  0
    2.5952   -4.3466   -1.6777 C   0  0  0  0  0  0  0  0  0  0  0  0
    1.2330   -4.8492   -1.2485 C   0  0  0  0  0  0  0  0  0  0  0  0
    0.8663   -3.3874   -1.1042 C   0  0  0  0  0  0  0  0  0  0  0  0
  1  2  1  0
  2  3  1  0
  3  4  1  0
  4  5  1  0
  5  6  2  0
  5  7  1  0
  7  8  1  0
  8  9  1  0
  9 10  2  0
  9 11  1  0
 11 12  1  0
 12 13  1  0
 13 14  2  0
 13 15  1  0
  7 16  1  0
 16 17  1  0
 17 18  2  0
 18 19  1  0
 19 20  2  0
 20 21  1  0
 20 22  1  0
 22 23  2  0
 23 17  1  0
  2 24  1  0
 24 25  1  0
 25 26  1  0
 26  2  1  0
M  END
$$$$
s_22____12206138____4059138
     RDKit          3D

 25 25  0  0  0  0  0  0  0  0999 V2000
    0.2404    0.9013    7.0964 O   0  0  0  0  0  0  0  0  0  0  0  0
    0.6355    1.9116    6.5833 C   0  0  0  0  0  0  0  0  0  0  0  0
    1.5507    2.6347    7.1799 O   0  0  0  0  0  0  0  0  0  0  0  0
    2.0752    2.2229    8.4335 C   0  0  0  0  0  0  0  0  0  0  0  0
    0.0741    2.3524    5.2414 C   0  0  0  0  0  0  0  0  0  0  0  0
    0.8842    1.7767    4.1583 N   0  0  0  0  0  0  0  0  0  0  0  0
    1.0110    2.4441    2.9686 C   0  0  0  0  0  0  0  0  0  0  0  0
    0.4607    3.4987    2.8107 O   0  0  0  0  0  0  0  0  0  0  0  0
    1.8487    1.8487    1.8487 C   0  0  0  0  0  0  0  0  0  0  0  0
    1.0000    1.0000    1.0000 N   0  0  0  0  0  0  0  0  0  0  0  0
    1.8487    0.1513    0.1513 C   0  0  0  0  0  0  0  0  0  0  0  0
    0.9711   -0.7263   -0.7263 C   0  0  0  0  0  0  0  0  0  0  0  0
    1.8487   -1.6038   -1.6038 C   0  0  0  0  0  0  0  0  0  0  0  0
    0.9711   -2.4814   -2.4814 C   0  0  0  0  0  0  0  0  0  0  0  0
    1.8487   -3.3590   -3.3590 C   0  0  0  0  0  0  0  0  0  0  0  0
    0.9711   -4.2366   -4.2366 C   0  0  0  0  0  0  0  0  0  0  0  0
    0.1513    1.8487    0.1513 C   0  0  0  0  0  0  0  0  0  0  0  0
   -1.3620    1.8718    5.1104 C   0  0  0  0  0  0  0  0  0  0  0  0
   -2.2885    2.8424    5.8253 C   0  0  0  0  0  0  0  0  0  0  0  0
   -2.7073    4.0042    5.1843 C   0  0  0  0  0  0  0  0  0  0  0  0
   -2.3000    4.2853    3.9280 O   0  0  0  0  0  0  0  0  0  0  0  0
   -3.5550    4.8926    5.8386 C   0  0  0  0  0  0  0  0  0  0  0  0
   -3.9843    4.6187    7.1336 C   0  0  0  0  0  0  0  0  0  0  0  0
   -3.5657    3.4565    7.7739 C   0  0  0  0  0  0  0  0  0  0  0  0
   -2.7184    2.5684    7.1194 C   0  0  0  0  0  0  0  0  0  0  0  0
  1  2  2  0
  2  3  1  0
  3  4  1  0
  2  5  1  0
  5  6  1  0
  6  7  1  0
  7  8  2  0
  7  9  1  0
  9 10  1  0
 10 11  1  0
 11 12  1  0
 12 13  1  0
 13 14  1  0
 14 15  1  0
 15 16  1  0
 10 17  1  0
  5 18  1  0
 18 19  1  0
 19 20  2  0
 20 21  1  0
 20 22  1  0
 22 23  2  0
 23 24  1  0
 24 25  2  0
 25 19  1  0
M  CHG  1  10   1
M  END
$$$$
s_2708____13426432____15747386
     RDKit          3D

 20 20  0  0  0  0  0  0  0  0999 V2000
    9.2896   -1.6204    3.3500 F   0  0  0  0  0  0  0  0  0  0  0  0
    8.6240   -1.6199    2.1986 C   0  0  0  0  0  0  0  0  0  0  0  0
    9.3301   -1.6203    1.0001 C   0  0  0  0  0  0  0  0  0  0  0  0
    8.6232   -1.6199   -0.1978 C   0  0  0  0  0  0  0  0  0  0  0  0
    9.3008   -1.6207   -1.3653 O   0  0  0  0  0  0  0  0  0  0  0  0
    7.2325   -1.6197   -0.2122 C   0  0  0  0  0  0  0  0  0  0  0  0
    6.5513   -1.6195    1.0000 C   0  0  0  0  0  0  0  0  0  0  0  0
    7.2333   -1.6195    2.2118 C   0  0  0  0  0  0  0  0  0  0  0  0
    5.0317   -1.6195    1.0000 C   0  0  0  0  0  0  0  0  0  0  0  0
    4.5250   -0.1865    1.0000 C   0  0  0  0  0  0  0  0  0  0  0  0
    3.0550   -0.1865    1.0000 N   0  0  0  0  0  0  0  0  0  0  0  0
    2.3700    1.0000    1.0000 C   0  0  0  0  0  0  0  0  0  0  0  0
    2.9700    2.0392    1.0000 O   0  0  0  0  0  0  0  0  0  0  0  0
    1.0000    1.0000    1.0000 N   0  0  0  0  0  0  0  0  0  0  0  0
    0.2650    2.2731    1.0000 C   0  0  0  0  0  0  0  0  0  0  0  0
   -0.6089    2.3536   -0.2411 C   0  0  0  0  0  0  0  0  0  0  0  0
   -1.3689    3.6699   -0.2411 C   0  0  0  0  0  0  0  0  0  0  0  0
   -1.9639    4.7005   -0.2411 C   0  0  0  0  0  0  0  0  0  0  0  0
   -2.7239    6.0169   -0.2411 C   0  0  0  0  0  0  0  0  0  0  0  0
   -0.6089    2.3536    2.2411 C   0  0  0  0  0  0  0  0  0  0  0  0
  1  2  1  0
  2  3  2  0
  3  4  1  0
  4  5  1  0
  4  6  2  0
  6  7  1  0
  7  8  2  0
  8  2  1  0
  7  9  1  0
  9 10  1  0
 10 11  1  0
 11 12  1  0
 12 13  2  0
 12 14  1  0
 14 15  1  0
 15 16  1  0
 16 17  1  0
 17 18  3  0
 18 19  1  0
 15 20  1  0
M  END
$$$$
s_527a____13952036____17513452
     RDKit          3D

 22 22  0  0  0  0  0  0  0  0999 V2000
    0.4000   -0.0392    1.0000 O   0  0  0  0  0  0  0  0  0  0  0  0
    1.0000    1.0000    1.0000 C   0  0  0  0  0  0  0  0  0  0  0  0
    2.3700    1.0000    1.0000 N   0  0  0  0  0  0  0  0  0  0  0  0
    3.1050   -0.2731    1.0000 C   0  0  0  0  0  0  0  0  0  0  0  0
    3.1428   -0.8363   -0.4113 C   0  0  0  0  0  0  0  0  0  0  0  0
    3.8528   -2.0660   -0.4113 O   0  0  0  0  0  0  0  0  0  0  0  0
    5.1790   -1.8469    0.0466 C   0  0  0  0  0  0  0  0  0  0  0  0
    3.8402    0.1514   -1.3325 C   0  0  0  0  0  0  0  0  0  0  0  0
    3.8755   -0.3747   -2.6509 O   0  0  0  0  0  0  0  0  0  0  0  0
    0.2400    2.3164    1.0000 C   0  0  0  0  0  0  0  0  0  0  0  0
   -1.2052    2.0477    1.0000 N   0  0  0  0  0  0  0  0  0  0  0  0
   -1.9871    2.5058    2.0275 C   0  0  0  0  0  0  0  0  0  0  0  0
   -1.4922    3.1263    2.9275 O   0  0  0  0  0  0  0  0  0  0  0  0
   -3.4815    2.2281    2.0275 C   0  0  0  0  0  0  0  0  0  0  0  0
    0.6072    3.1134   -0.2411 C   0  0  0  0  0  0  0  0  0  0  0  0
   -0.1528    4.4298   -0.2411 C   0  0  0  0  0  0  0  0  0  0  0  0
    0.4132    5.5469    0.3644 C   0  0  0  0  0  0  0  0  0  0  0  0
   -0.2782    6.7537    0.3662 C   0  0  0  0  0  0  0  0  0  0  0  0
   -1.5287    6.8280   -0.2391 C   0  0  0  0  0  0  0  0  0  0  0  0
   -2.2034    7.9972   -0.2393 O   0  0  0  0  0  0  0  0  0  0  0  0
   -2.0995    5.7138   -0.8457 C   0  0  0  0  0  0  0  0  0  0  0  0
   -1.4035    4.5097   -0.8449 C   0  0  0  0  0  0  0  0  0  0  0  0
  1  2  2  0
  2  3  1  0
  3  4  1  0
  4  5  1  0
  5  6  1  0
  6  7  1  0
  5  8  1  0
  8  9  1  0
  2 10  1  0
 10 11  1  0
 11 12  1  0
 12 13  2  0
 12 14  1  0
 10 15  1  0
 15 16  1  0
 16 17  2  0
 17 18  1  0
 18 19  2  0
 19 20  1  0
 19 21  1  0
 21 22  2  0
 22 16  1  0
M  END
$$$$
s_22____4836870____17064022
     RDKit          3D

 26 26  0  0  0  0  0  0  0  0999 V2000
    1.2557    4.7128    1.7726 O   0  0  0  0  0  0  0  0  0  0  0  0
    1.3899    4.4555    0.6082 C   0  0  0  0  0  0  0  0  0  0  0  0
    0.9144    3.2716    0.1091 N   0  0  0  0  0  0  0  0  0  0  0  0
    0.2400    2.3164    1.0000 C   0  0  0  0  0  0  0  0  0  0  0  0
    1.0000    1.0000    1.0000 C   0  0  0  0  0  0  0  0  0  0  0  0
    0.4000   -0.0392    1.0000 O   0  0  0  0  0  0  0  0  0  0  0  0
    2.3700    1.0000    1.0000 N   0  0  0  0  0  0  0  0  0  0  0  0
    3.1050   -0.2731    1.0000 C   0  0  0  0  0  0  0  0  0  0  0  0
    3.1428   -0.8363   -0.4113 C   0  0  0  0  0  0  0  0  0  0  0  0
    3.9028   -2.1526   -0.4113 C   0  0  0  0  0  0  0  0  0  0  0  0
    3.9406   -2.7158   -1.8226 C   0  0  0  0  0  0  0  0  0  0  0  0
    2.5678   -2.9427   -2.2966 N   0  0  0  0  0  0  0  0  0  0  0  0
    2.6044   -3.4873   -3.6615 C   0  0  0  0  0  0  0  0  0  0  0  0
    1.8933   -3.8979   -1.4058 C   0  0  0  0  0  0  0  0  0  0  0  0
   -1.1796    2.0818    0.5099 C   0  0  0  0  0  0  0  0  0  0  0  0
   -1.9396    3.3982    0.5099 C   0  0  0  0  0  0  0  0  0  0  0  0
   -1.9231    4.1980   -0.6281 C   0  0  0  0  0  0  0  0  0  0  0  0
   -2.6177    5.4030   -0.6330 C   0  0  0  0  0  0  0  0  0  0  0  0
   -3.3214    5.7930    0.5021 C   0  0  0  0  0  0  0  0  0  0  0  0
   -3.9966    6.9618    0.5018 O   0  0  0  0  0  0  0  0  0  0  0  0
   -3.3409    4.9970    1.6429 C   0  0  0  0  0  0  0  0  0  0  0  0
   -2.6449    3.7929    1.6420 C   0  0  0  0  0  0  0  0  0  0  0  0
    2.0873    5.4432   -0.3129 C   0  0  0  0  0  0  0  0  0  0  0  0
    2.5144    6.6649    0.4843 C   0  0  0  0  0  0  0  0  0  0  0  0
    3.2117    7.6526   -0.4369 C   0  0  0  0  0  0  0  0  0  0  0  0
    3.3122    4.7853   -0.9270 C   0  0  0  0  0  0  0  0  0  0  0  0
  1  2  2  0
  2  3  1  0
  3  4  1  0
  4  5  1  0
  5  6  2  0
  5  7  1  0
  7  8  1  0
  8  9  1  0
  9 10  1  0
 10 11  1  0
 11 12  1  0
 12 13  1  0
 12 14  1  0
  4 15  1  0
 15 16  1  0
 16 17  2  0
 17 18  1  0
 18 19  2  0
 19 20  1  0
 19 21  1  0
 21 22  2  0
 22 16  1  0
  2 23  1  0
 23 24  1  0
 24 25  1  0
 23 26  1  0
M  CHG  1  12   1
M  END
$$$$
s_22____7290494____17057108
     RDKit          3D

 26 26  0  0  0  0  0  0  0  0999 V2000
   -3.7850   -1.7189    3.7562 S   0  0  0  0  0  0  0  0  0  0  0  0
   -3.1817   -0.2411    2.9030 C   0  0  0  0  0  0  0  0  0  0  0  0
   -1.6617   -0.2411    2.9030 C   0  0  0  0  0  0  0  0  0  0  0  0
   -1.1550    1.0000    2.1865 C   0  0  0  0  0  0  0  0  0  0  0  0
    0.3150    1.0000    2.1865 N   0  0  0  0  0  0  0  0  0  0  0  0
    1.0000    1.0000    1.0000 C   0  0  0  0  0  0  0  0  0  0  0  0
    0.4000    1.0000   -0.0392 O   0  0  0  0  0  0  0  0  0  0  0  0
    2.5200    1.0000    1.0000 C   0  0  0  0  0  0  0  0  0  0  0  0
    3.0100    1.0000   -0.3859 N   0  0  0  0  0  0  0  0  0  0  0  0
    3.7976   -0.0275   -0.8340 C   0  0  0  0  0  0  0  0  0  0  0  0
    4.0138   -0.9711   -0.1248 O   0  0  0  0  0  0  0  0  0  0  0  0
    4.3977    0.0277   -2.2295 C   0  0  0  0  0  0  0  0  0  0  0  0
    4.8450   -1.3646   -2.6441 C   0  0  0  0  0  0  0  0  0  0  0  0
    3.6531   -2.1413   -3.1792 C   0  0  0  0  0  0  0  0  0  0  0  0
    5.9057   -1.2544   -3.7273 C   0  0  0  0  0  0  0  0  0  0  0  0
    3.0267    2.2411    1.7165 C   0  0  0  0  0  0  0  0  0  0  0  0
    4.5467    2.2411    1.7165 C   0  0  0  0  0  0  0  0  0  0  0  0
    5.2311    1.6356    2.7653 C   0  0  0  0  0  0  0  0  0  0  0  0
    6.6219    1.6325    2.7691 C   0  0  0  0  0  0  0  0  0  0  0  0
    7.3116    2.2356    1.7220 C   0  0  0  0  0  0  0  0  0  0  0  0
    8.6614    2.2352    1.7220 O   0  0  0  0  0  0  0  0  0  0  0  0
    6.6320    2.8428    0.6710 C   0  0  0  0  0  0  0  0  0  0  0  0
    5.2412    2.8426    0.6720 C   0  0  0  0  0  0  0  0  0  0  0  0
   -1.6617    2.2411    2.9030 C   0  0  0  0  0  0  0  0  0  0  0  0
   -1.1883    3.4005    2.2336 O   0  0  0  0  0  0  0  0  0  0  0  0
   -5.5649   -1.4341    3.5918 C   0  0  0  0  0  0  0  0  0  0  0  0
  1  2  1  0
  2  3  1  0
  3  4  1  0
  4  5  1  0
  5  6  1  0
  6  7  2  0
  6  8  1  0
  8  9  1  0
  9 10  1  0
 10 11  2  0
 10 12  1  0
 12 13  1  0
 13 14  1  0
 13 15  1  0
  8 16  1  0
 16 17  1  0
 17 18  2  0
 18 19  1  0
 19 20  2  0
 20 21  1  0
 20 22  1  0
 22 23  2  0
 23 17  1  0
  4 24  1  0
 24 25  1  0
  1 26  1  0
M  END
$$$$
s_22____15151066____10968770
     RDKit          3D

 22 22  0  0  0  0  0  0  0  0999 V2000
   -0.9589    7.0580   -1.4239 F   0  0  0  0  0  0  0  0  0  0  0  0
   -1.4908    5.9835   -0.8490 C   0  0  0  0  0  0  0  0  0  0  0  0
   -0.7935    4.7805   -0.8493 C   0  0  0  0  0  0  0  0  0  0  0  0
   -1.3686    3.6694   -0.2411 C   0  0  0  0  0  0  0  0  0  0  0  0
   -2.6200    3.7471    0.3619 C   0  0  0  0  0  0  0  0  0  0  0  0
   -3.3071    4.9566    0.3566 C   0  0  0  0  0  0  0  0  0  0  0  0
   -2.7429    6.0747   -0.2497 C   0  0  0  0  0  0  0  0  0  0  0  0
   -0.6089    2.3536   -0.2411 C   0  0  0  0  0  0  0  0  0  0  0  0
    0.2650    2.2731    1.0000 C   0  0  0  0  0  0  0  0  0  0  0  0
    1.0000    1.0000    1.0000 N   0  0  0  0  0  0  0  0  0  0  0  0
    2.3700    1.0000    1.0000 C   0  0  0  0  0  0  0  0  0  0  0  0
    2.9700    2.0392    1.0000 O   0  0  0  0  0  0  0  0  0  0  0  0
    3.1300   -0.3164    1.0000 C   0  0  0  0  0  0  0  0  0  0  0  0
    2.7628   -1.1134   -0.2411 C   0  0  0  0  0  0  0  0  0  0  0  0
    3.5228   -2.4298   -0.2411 C   0  0  0  0  0  0  0  0  0  0  0  0
    3.2015   -3.1272    0.8449 F   0  0  0  0  0  0  0  0  0  0  0  0
    3.2015   -3.1272   -1.3270 F   0  0  0  0  0  0  0  0  0  0  0  0
    4.6244   -0.0386    1.0000 C   0  0  0  0  0  0  0  0  0  0  0  0
   -0.6089    2.3536    2.2411 C   0  0  0  0  0  0  0  0  0  0  0  0
   -0.7132    3.3910    2.8352 O   0  0  0  0  0  0  0  0  0  0  0  0
   -1.2481    1.2905    2.6621 O   0  0  0  0  0  0  0  0  0  0  0  0
   -2.0645    1.3657    3.8216 C   0  0  0  0  0  0  0  0  0  0  0  0
  1  2  1  0
  2  3  2  0
  3  4  1  0
  4  5  2  0
  5  6  1  0
  6  7  2  0
  7  2  1  0
  4  8  1  0
  8  9  1  0
  9 10  1  0
 10 11  1  0
 11 12  2  0
 11 13  1  0
 13 14  1  0
 14 15  1  0
 15 16  1  0
 15 17  1  0
 13 18  1  0
  9 19  1  0
 19 20  2  0
 19 21  1  0
 21 22  1  0
M  END
$$$$
s_22____8252164____17064022
     RDKit          3D

 26 26  0  0  0  0  0  0  0  0999 V2000
    1.2557    4.7128    1.7726 O   0  0  0  0  0  0  0  0  0  0  0  0
    1.3899    4.4555    0.6082 C   0  0  0  0  0  0  0  0  0  0  0  0
    0.9144    3.2716    0.1091 N   0  0  0  0  0  0  0  0  0  0  0  0
    0.2400    2.3164    1.0000 C   0  0  0  0  0  0  0  0  0  0  0  0
    1.0000    1.0000    1.0000 C   0  0  0  0  0  0  0  0  0  0  0  0
    0.4000   -0.0392    1.0000 O   0  0  0  0  0  0  0  0  0  0  0  0
    2.3700    1.0000    1.0000 N   0  0  0  0  0  0  0  0  0  0  0  0
    3.1050   -0.2731    1.0000 C   0  0  0  0  0  0  0  0  0  0  0  0
    3.1428   -0.8363   -0.4113 C   0  0  0  0  0  0  0  0  0  0  0  0
    3.9028   -2.1526   -0.4113 C   0  0  0  0  0  0  0  0  0  0  0  0
    3.9406   -2.7158   -1.8226 C   0  0  0  0  0  0  0  0  0  0  0  0
    2.5211   -2.9504   -2.3127 C   0  0  0  0  0  0  0  0  0  0  0  0
    1.7981   -3.7025   -1.7197 O   0  0  0  0  0  0  0  0  0  0  0  0
    2.0670   -2.3031   -3.4315 N   0  0  0  0  0  0  0  0  0  0  0  0
   -1.1796    2.0818    0.5099 C   0  0  0  0  0  0  0  0  0  0  0  0
   -1.9396    3.3982    0.5099 C   0  0  0  0  0  0  0  0  0  0  0  0
   -1.9231    4.1980   -0.6281 C   0  0  0  0  0  0  0  0  0  0  0  0
   -2.6177    5.4030   -0.6330 C   0  0  0  0  0  0  0  0  0  0  0  0
   -3.3214    5.7930    0.5021 C   0  0  0  0  0  0  0  0  0  0  0  0
   -3.9966    6.9618    0.5018 O   0  0  0  0  0  0  0  0  0  0  0  0
   -3.3409    4.9970    1.6429 C   0  0  0  0  0  0  0  0  0  0  0  0
   -2.6449    3.7929    1.6420 C   0  0  0  0  0  0  0  0  0  0  0  0
    2.0873    5.4432   -0.3129 C   0  0  0  0  0  0  0  0  0  0  0  0
    1.1326    5.8671   -1.4172 C   0  0  0  0  0  0  0  0  0  0  0  0
    1.8300    6.8548   -2.3383 C   0  0  0  0  0  0  0  0  0  0  0  0
    2.5144    6.6649    0.4843 C   0  0  0  0  0  0  0  0  0  0  0  0
  1  2  2  0
  2  3  1  0
  3  4  1  0
  4  5  1  0
  5  6  2  0
  5  7  1  0
  7  8  1  0
  8  9  1  0
  9 10  1  0
 10 11  1  0
 11 12  1  0
 12 13  2  0
 12 14  1  0
  4 15  1  0
 15 16  1  0
 16 17  2  0
 17 18  1  0
 18 19  2  0
 19 20  1  0
 19 21  1  0
 21 22  2  0
 22 16  1  0
  2 23  1  0
 23 24  1  0
 24 25  1  0
 23 26  1  0
M  END
$$$$
s_22____7114868____107333
     RDKit          3D

 23 23  0  0  0  0  0  0  0  0999 V2000
    7.9035    2.2680   -3.3792 Br  0  0  0  0  0  0  0  0  0  0  0  0
    6.8555    1.5212   -1.9009 C   0  0  0  0  0  0  0  0  0  0  0  0
    6.1911    0.3108   -2.0699 C   0  0  0  0  0  0  0  0  0  0  0  0
    5.4489   -0.2143   -1.0171 C   0  0  0  0  0  0  0  0  0  0  0  0
    5.3792    0.4745    0.1895 C   0  0  0  0  0  0  0  0  0  0  0  0
    6.0463    1.6846    0.3516 C   0  0  0  0  0  0  0  0  0  0  0  0
    6.7903    2.2158   -0.6969 C   0  0  0  0  0  0  0  0  0  0  0  0
    4.5670   -0.1053    1.3359 C   0  0  0  0  0  0  0  0  0  0  0  0
    5.1432   -1.3954    1.7414 N   0  0  0  0  0  0  0  0  0  0  0  0
    5.6000   -1.5696    3.0212 C   0  0  0  0  0  0  0  0  0  0  0  0
    5.5297   -0.6691    3.8111 O   0  0  0  0  0  0  0  0  0  0  0  0
    6.1958   -2.9037    3.4405 C   0  0  0  0  0  0  0  0  0  0  0  0
    3.1300   -0.3113    0.8853 C   0  0  0  0  0  0  0  0  0  0  0  0
    2.3700    1.0000    1.0000 C   0  0  0  0  0  0  0  0  0  0  0  0
    2.9700    2.0353    1.0906 O   0  0  0  0  0  0  0  0  0  0  0  0
    1.0000    1.0000    1.0000 N   0  0  0  0  0  0  0  0  0  0  0  0
    0.2650    2.2731    1.0000 C   0  0  0  0  0  0  0  0  0  0  0  0
    0.2272    2.8363   -0.4113 C   0  0  0  0  0  0  0  0  0  0  0  0
   -0.4828    4.0660   -0.4113 O   0  0  0  0  0  0  0  0  0  0  0  0
   -0.4702    1.8486   -1.3325 C   0  0  0  0  0  0  0  0  0  0  0  0
   -0.5080    2.4118   -2.7438 C   0  0  0  0  0  0  0  0  0  0  0  0
    0.9115    2.6463   -3.2339 C   0  0  0  0  0  0  0  0  0  0  0  0
   -1.2054    1.4241   -3.6649 C   0  0  0  0  0  0  0  0  0  0  0  0
  1  2  1  0
  2  3  2  0
  3  4  1  0
  4  5  2  0
  5  6  1  0
  6  7  2  0
  7  2  1  0
  5  8  1  0
  8  9  1  0
  9 10  1  0
 10 11  2  0
 10 12  1  0
  8 13  1  0
 13 14  1  0
 14 15  2  0
 14 16  1  0
 16 17  1  0
 17 18  1  0
 18 19  1  0
 18 20  1  0
 20 21  1  0
 21 22  1  0
 21 23  1  0
M  END
$$$$
s_270062____7610942____8147258
     RDKit          3D

 19 20  0  0  0  0  0  0  0  0999 V2000
    3.6182    1.9403    4.8346 Cl  0  0  0  0  0  0  0  0  0  0  0  0
    3.9607    2.2828    3.1218 C   0  0  0  0  0  0  0  0  0  0  0  0
    3.0831    1.4052    2.2442 C   0  0  0  0  0  0  0  0  0  0  0  0
    3.4716    0.3240    1.8978 O   0  0  0  0  0  0  0  0  0  0  0  0
    1.8487    1.8487    1.8487 N   0  0  0  0  0  0  0  0  0  0  0  0
    1.0000    1.0000    1.0000 C   0  0  0  0  0  0  0  0  0  0  0  0
    0.7075    1.7208   -0.3059 C   0  0  0  0  0  0  0  0  0  0  0  0
   -0.4158    1.7705   -0.7252 O   0  0  0  0  0  0  0  0  0  0  0  0
    1.7262    2.3138   -1.0041 N   0  0  0  0  0  0  0  0  0  0  0  0
    1.4301    3.1030   -2.2064 C   0  0  0  0  0  0  0  0  0  0  0  0
    2.4327    4.2026   -2.4063 C   0  0  0  0  0  0  0  0  0  0  0  0
    1.0652    4.5208   -1.8724 C   0  0  0  0  0  0  0  0  0  0  0  0
   -0.3059    0.7075    1.7208 C   0  0  0  0  0  0  0  0  0  0  0  0
   -0.0133   -0.0135    3.0269 C   0  0  0  0  0  0  0  0  0  0  0  0
    0.1956    0.7227    4.1885 C   0  0  0  0  0  0  0  0  0  0  0  0
    0.4639    0.0591    5.3813 C   0  0  0  0  0  0  0  0  0  0  0  0
    0.5203   -1.3305    5.4067 C   0  0  0  0  0  0  0  0  0  0  0  0
    0.3095   -2.0555    4.2404 C   0  0  0  0  0  0  0  0  0  0  0  0
    0.0410   -1.4036    3.0412 C   0  0  0  0  0  0  0  0  0  0  0  0
  1  2  1  0
  2  3  1  0
  3  4  2  0
  3  5  1  0
  5  6  1  0
  6  7  1  0
  7  8  2  0
  7  9  1  0
  9 10  1  0
 10 11  1  0
 11 12  1  0
 12 10  1  0
  6 13  1  0
 13 14  1  0
 14 15  2  0
 15 16  1  0
 16 17  2  0
 17 18  1  0
 18 19  2  0
 19 14  1  0
M  END
$$$$
s_22____10390142____15065924
     RDKit          3D

 25 25  0  0  0  0  0  0  0  0999 V2000
    0.3966   -1.9559    1.5363 Cl  0  0  0  0  0  0  0  0  0  0  0  0
   -0.6639   -0.6059    2.0070 C   0  0  0  0  0  0  0  0  0  0  0  0
   -0.3062    0.7074    1.7210 C   0  0  0  0  0  0  0  0  0  0  0  0
   -1.1442    1.7529    2.0941 C   0  0  0  0  0  0  0  0  0  0  0  0
   -2.3384    1.4806    2.7529 C   0  0  0  0  0  0  0  0  0  0  0  0
   -2.6908    0.1657    3.0368 C   0  0  0  0  0  0  0  0  0  0  0  0
   -1.8568   -0.8843    2.6663 C   0  0  0  0  0  0  0  0  0  0  0  0
    1.0000    1.0000    1.0000 C   0  0  0  0  0  0  0  0  0  0  0  0
    1.8776    1.8776    1.8776 C   0  0  0  0  0  0  0  0  0  0  0  0
    1.9338    3.0596    1.6786 O   0  0  0  0  0  0  0  0  0  0  0  0
    2.6044    1.3190    2.8957 N   0  0  0  0  0  0  0  0  0  0  0  0
    3.4531    2.1677    3.7445 C   0  0  0  0  0  0  0  0  0  0  0  0
    4.1458    1.3079    4.7891 C   0  0  0  0  0  0  0  0  0  0  0  0
    3.1012    0.6152    5.6489 C   0  0  0  0  0  0  0  0  0  0  0  0
    2.2414    1.6599    6.3416 C   0  0  0  0  0  0  0  0  0  0  0  0
    1.3273    1.0537    7.0939 F   0  0  0  0  0  0  0  0  0  0  0  0
    0.7075    1.7208   -0.3059 C   0  0  0  0  0  0  0  0  0  0  0  0
   -0.1412    0.8721   -1.1546 N   0  0  0  0  0  0  0  0  0  0  0  0
   -0.5367    1.3156   -2.3890 C   0  0  0  0  0  0  0  0  0  0  0  0
   -1.2295    0.6227   -3.0818 O   0  0  0  0  0  0  0  0  0  0  0  0
   -0.1585    2.4959   -2.8130 O   0  0  0  0  0  0  0  0  0  0  0  0
   -0.5685    2.9556   -4.0925 C   0  0  0  0  0  0  0  0  0  0  0  0
   -0.0597    2.0013   -5.1607 C   0  0  0  0  0  0  0  0  0  0  0  0
   -2.0863    3.0147   -4.1473 C   0  0  0  0  0  0  0  0  0  0  0  0
    0.0018    4.3428   -4.3392 C   0  0  0  0  0  0  0  0  0  0  0  0
  1  2  1  0
  2  3  2  0
  3  4  1  0
  4  5  2  0
  5  6  1  0
  6  7  2  0
  7  2  1  0
  3  8  1  0
  8  9  1  0
  9 10  2  0
  9 11  1  0
 11 12  1  0
 12 13  1  0
 13 14  1  0
 14 15  1  0
 15 16  1  0
  8 17  1  0
 17 18  1  0
 18 19  1  0
 19 20  2  0
 19 21  1  0
 21 22  1  0
 22 23  1  0
 22 24  1  0
 22 25  1  0
M  END
$$$$
s_240690b____15151100____11954850
     RDKit          3D

 21 21  0  0  0  0  0  0  0  0999 V2000
    1.7529    2.2275   -3.7104 F   0  0  0  0  0  0  0  0  0  0  0  0
    2.0302    1.0455   -3.1684 C   0  0  0  0  0  0  0  0  0  0  0  0
    2.8291    0.9740   -2.0325 C   0  0  0  0  0  0  0  0  0  0  0  0
    3.1053   -0.2731   -1.4817 C   0  0  0  0  0  0  0  0  0  0  0  0
    2.5964   -1.4377   -2.0476 C   0  0  0  0  0  0  0  0  0  0  0  0
    1.7976   -1.3531   -3.1832 C   0  0  0  0  0  0  0  0  0  0  0  0
    1.5151   -0.1114   -3.7442 C   0  0  0  0  0  0  0  0  0  0  0  0
    3.9789   -0.3536   -0.2411 C   0  0  0  0  0  0  0  0  0  0  0  0
    3.1050   -0.2731    1.0000 C   0  0  0  0  0  0  0  0  0  0  0  0
    2.3700    1.0000    1.0000 N   0  0  0  0  0  0  0  0  0  0  0  0
    1.0000    1.0000    1.0000 C   0  0  0  0  0  0  0  0  0  0  0  0
    0.4000   -0.0392    1.0000 O   0  0  0  0  0  0  0  0  0  0  0  0
    0.2400    2.3164    1.0000 C   0  0  0  0  0  0  0  0  0  0  0  0
   -1.2052    2.0477    1.0000 N   0  0  0  0  0  0  0  0  0  0  0  0
   -1.9402    3.3208    1.0000 C   0  0  0  0  0  0  0  0  0  0  0  0
   -3.4347    3.0431    1.0000 C   0  0  0  0  0  0  0  0  0  0  0  0
   -1.5730    4.1179    2.2411 C   0  0  0  0  0  0  0  0  0  0  0  0
    3.9789   -0.3536    2.2411 C   0  0  0  0  0  0  0  0  0  0  0  0
    5.0852   -0.8125    2.1672 O   0  0  0  0  0  0  0  0  0  0  0  0
    3.5243    0.0780    3.3914 O   0  0  0  0  0  0  0  0  0  0  0  0
    4.3406    0.0028    4.5508 C   0  0  0  0  0  0  0  0  0  0  0  0
  1  2  1  0
  2  3  2  0
  3  4  1  0
  4  5  2  0
  5  6  1  0
  6  7  2  0
  7  2  1  0
  4  8  1  0
  8  9  1  0
  9 10  1  0
 10 11  1  0
 11 12  2  0
 11 13  1  0
 13 14  1  0
 14 15  1  0
 15 16  1  0
 15 17  1  0
  9 18  1  0
 18 19  2  0
 18 20  1  0
 20 21  1  0
M  CHG  1  14   1
M  END
$$$$
s_22____8902424____17064022
     RDKit          3D

 26 27  0  0  0  0  0  0  0  0999 V2000
    3.0725    1.7997    1.7997 O   0  0  0  0  0  0  0  0  0  0  0  0
    1.8776    1.8776    1.8776 C   0  0  0  0  0  0  0  0  0  0  0  0
    1.3043    2.7574    2.7574 N   0  0  0  0  0  0  0  0  0  0  0  0
    2.1530    3.6061    3.6061 C   0  0  0  0  0  0  0  0  0  0  0  0
    2.4456    4.9120    2.8853 C   0  0  0  0  0  0  0  0  0  0  0  0
    3.3231    5.7896    3.7629 C   0  0  0  0  0  0  0  0  0  0  0  0
    3.6158    7.0960    3.0418 C   0  0  0  0  0  0  0  0  0  0  0  0
    2.3469    7.8369    2.7358 C   0  0  0  0  0  0  0  0  0  0  0  0
    3.0752    7.1114    1.6409 C   0  0  0  0  0  0  0  0  0  0  0  0
    1.4322    3.8987    4.9120 C   0  0  0  0  0  0  0  0  0  0  0  0
    1.0000    1.0000    1.0000 C   0  0  0  0  0  0  0  0  0  0  0  0
    0.7171    1.6971   -0.2629 N   0  0  0  0  0  0  0  0  0  0  0  0
    1.5540    1.5376   -1.3358 C   0  0  0  0  0  0  0  0  0  0  0  0
    2.5180    0.8288   -1.2446 O   0  0  0  0  0  0  0  0  0  0  0  0
    1.2615    2.2584   -2.6416 C   0  0  0  0  0  0  0  0  0  0  0  0
    1.9440    3.6165   -2.6346 C   0  0  0  0  0  0  0  0  0  0  0  0
    1.6515    4.3373   -3.9405 C   0  0  0  0  0  0  0  0  0  0  0  0
    1.7873    1.4331   -3.8047 C   0  0  0  0  0  0  0  0  0  0  0  0
   -0.3059    0.7075    1.7208 C   0  0  0  0  0  0  0  0  0  0  0  0
   -1.1835   -0.1701    0.8432 C   0  0  0  0  0  0  0  0  0  0  0  0
   -1.0842   -1.5540    0.9425 C   0  0  0  0  0  0  0  0  0  0  0  0
   -1.8857   -2.3610    0.1420 C   0  0  0  0  0  0  0  0  0  0  0  0
   -2.7781   -1.7726   -0.7486 C   0  0  0  0  0  0  0  0  0  0  0  0
   -3.5982   -2.5925   -1.5681 O   0  0  0  0  0  0  0  0  0  0  0  0
   -2.8811   -0.3891   -0.8520 C   0  0  0  0  0  0  0  0  0  0  0  0
   -2.0774    0.4131   -0.0489 C   0  0  0  0  0  0  0  0  0  0  0  0
  1  2  2  0
  2  3  1  0
  3  4  1  0
  4  5  1  0
  5  6  1  0
  6  7  1  0
  7  8  1  0
  8  9  1  0
  9  7  1  0
  4 10  1  0
  2 11  1  0
 11 12  1  0
 12 13  1  0
 13 14  2  0
 13 15  1  0
 15 16  1  0
 16 17  1  0
 15 18  1  0
 11 19  1  0
 19 20  1  0
 20 21  2  0
 21 22  1  0
 22 23  2  0
 23 24  1  0
 23 25  1  0
 25 26  2  0
 26 20  1  0
M  END
$$$$
s_2430a____12915848____4963356
     RDKit          3D

 23 23  0  0  0  0  0  0  0  0999 V2000
   -1.8992    3.3270    3.4696 F   0  0  0  0  0  0  0  0  0  0  0  0
   -2.6639    2.2411    3.5400 C   0  0  0  0  0  0  0  0  0  0  0  0
   -3.5281    2.2411    2.5291 F   0  0  0  0  0  0  0  0  0  0  0  0
   -1.7900    1.0000    3.4595 C   0  0  0  0  0  0  0  0  0  0  0  0
   -1.0550    1.0000    2.1865 N   0  0  0  0  0  0  0  0  0  0  0  0
    0.3150    1.0000    2.1865 C   0  0  0  0  0  0  0  0  0  0  0  0
    0.9150    1.0000    3.2257 O   0  0  0  0  0  0  0  0  0  0  0  0
    1.0000    1.0000    1.0000 N   0  0  0  0  0  0  0  0  0  0  0  0
    2.4700    1.0000    1.0000 C   0  0  0  0  0  0  0  0  0  0  0  0
    2.9767   -0.4113    1.2488 C   0  0  0  0  0  0  0  0  0  0  0  0
    4.4967   -0.4113    1.2488 C   0  0  0  0  0  0  0  0  0  0  0  0
    5.0967   -0.7667    2.2254 O   0  0  0  0  0  0  0  0  0  0  0  0
    5.1517   -0.0233    0.1828 O   0  0  0  0  0  0  0  0  0  0  0  0
    6.5717   -0.0233    0.1828 C   0  0  0  0  0  0  0  0  0  0  0  0
    2.4700   -1.3325    0.1511 C   0  0  0  0  0  0  0  0  0  0  0  0
    2.9767   -2.7438    0.3999 C   0  0  0  0  0  0  0  0  0  0  0  0
    2.2160   -3.6184    1.1690 C   0  0  0  0  0  0  0  0  0  0  0  0
    2.6753   -4.9109    1.3987 C   0  0  0  0  0  0  0  0  0  0  0  0
    3.8912   -5.3131    0.8550 C   0  0  0  0  0  0  0  0  0  0  0  0
    4.3409   -6.5665    1.0757 O   0  0  0  0  0  0  0  0  0  0  0  0
    4.6560   -4.4423    0.0855 C   0  0  0  0  0  0  0  0  0  0  0  0
    4.1917   -3.1510   -0.1414 C   0  0  0  0  0  0  0  0  0  0  0  0
   -2.6639   -0.2411    3.5400 C   0  0  0  0  0  0  0  0  0  0  0  0
  1  2  1  0
  2  3  1  0
  2  4  1  0
  4  5  1  0
  5  6  1  0
  6  7  2  0
  6  8  1  0
  8  9  1  0
  9 10  1  0
 10 11  1  0
 11 12  2  0
 11 13  1  0
 13 14  1  0
 10 15  1  0
 15 16  1  0
 16 17  2  0
 17 18  1  0
 18 19  2  0
 19 20  1  0
 19 21  1  0
 21 22  2  0
 22 16  1  0
  4 23  1  0
M  END
$$$$
s_22____7689026____3192126
     RDKit          3D

 23 23  0  0  0  0  0  0  0  0999 V2000
    1.6640    1.7197    5.8141 S   0  0  0  0  0  0  0  0  0  0  0  0
    2.5455    2.9163    4.7811 C   0  0  0  0  0  0  0  0  0  0  0  0
    3.4131    2.1760    3.7762 C   0  0  0  0  0  0  0  0  0  0  0  0
    2.5644    1.3273    2.9275 N   0  0  0  0  0  0  0  0  0  0  0  0
    1.8776    1.8776    1.8776 C   0  0  0  0  0  0  0  0  0  0  0  0
    1.9688    3.0524    1.6507 O   0  0  0  0  0  0  0  0  0  0  0  0
    1.0000    1.0000    1.0000 C   0  0  0  0  0  0  0  0  0  0  0  0
    0.7075    1.7208   -0.3059 C   0  0  0  0  0  0  0  0  0  0  0  0
   -0.2825    0.9552   -1.0771 N   0  0  0  0  0  0  0  0  0  0  0  0
   -1.4824    1.5266   -1.4097 C   0  0  0  0  0  0  0  0  0  0  0  0
   -1.7253    2.6520   -1.0715 O   0  0  0  0  0  0  0  0  0  0  0  0
   -2.5060    0.7349   -2.2071 C   0  0  0  0  0  0  0  0  0  0  0  0
    1.9899    1.8484   -1.1126 C   0  0  0  0  0  0  0  0  0  0  0  0
    2.3107    3.0573   -1.7222 C   0  0  0  0  0  0  0  0  0  0  0  0
    1.4943    4.1268   -1.6080 O   0  0  0  0  0  0  0  0  0  0  0  0
    1.9297    5.4031   -2.0527 C   0  0  0  0  0  0  0  0  0  0  0  0
    0.8309    6.4254   -1.8122 C   0  0  0  0  0  0  0  0  0  0  0  0
    3.4842    3.1740   -2.4607 C   0  0  0  0  0  0  0  0  0  0  0  0
    4.3369    2.0819   -2.5890 C   0  0  0  0  0  0  0  0  0  0  0  0
    4.0159    0.8734   -1.9787 C   0  0  0  0  0  0  0  0  0  0  0  0
    2.8428    0.7571   -1.2402 C   0  0  0  0  0  0  0  0  0  0  0  0
    3.4231    3.7939    5.6586 C   0  0  0  0  0  0  0  0  0  0  0  0
    3.0649    1.0806    6.7654 C   0  0  0  0  0  0  0  0  0  0  0  0
  1  2  1  0
  2  3  1  0
  3  4  1  0
  4  5  1  0
  5  6  2  0
  5  7  1  0
  7  8  1  0
  8  9  1  0
  9 10  1  0
 10 11  2  0
 10 12  1  0
  8 13  1  0
 13 14  2  0
 14 15  1  0
 15 16  1  0
 16 17  1  0
 14 18  1  0
 18 19  2  0
 19 20  1  0
 20 21  2  0
 21 13  1  0
  2 22  1  0
  1 23  1  0
M  END
$$$$
s_527a____11985138____17513452
     RDKit          3D

 23 24  0  0  0  0  0  0  0  0999 V2000
    0.4000    1.0000   -0.0392 O   0  0  0  0  0  0  0  0  0  0  0  0
    1.0000    1.0000    1.0000 C   0  0  0  0  0  0  0  0  0  0  0  0
    0.3150    1.0000    2.1865 N   0  0  0  0  0  0  0  0  0  0  0  0
   -1.1550    1.0000    2.1865 C   0  0  0  0  0  0  0  0  0  0  0  0
   -1.6610   -0.4313    2.1865 C   0  0  0  0  0  0  0  0  0  0  0  0
   -1.1804   -1.1846    3.4062 C   0  0  0  0  0  0  0  0  0  0  0  0
   -2.5040   -1.8014    3.4350 N   0  0  0  0  0  0  0  0  0  0  0  0
   -3.0163   -0.5568    2.8567 C   0  0  0  0  0  0  0  0  0  0  0  0
   -2.9897   -1.9855    4.8101 C   0  0  0  0  0  0  0  0  0  0  0  0
    1.0500    1.0000    3.4595 C   0  0  0  0  0  0  0  0  0  0  0  0
    2.5200    1.0000    1.0000 C   0  0  0  0  0  0  0  0  0  0  0  0
    3.0100    1.6930   -0.2002 N   0  0  0  0  0  0  0  0  0  0  0  0
    3.2383    3.0434   -0.1663 C   0  0  0  0  0  0  0  0  0  0  0  0
    3.0383    3.6605    0.8432 O   0  0  0  0  0  0  0  0  0  0  0  0
    3.7450    3.7599   -1.4074 C   0  0  0  0  0  0  0  0  0  0  0  0
    3.0267   -0.4331    1.0000 C   0  0  0  0  0  0  0  0  0  0  0  0
    4.5467   -0.4331    1.0000 C   0  0  0  0  0  0  0  0  0  0  0  0
    5.2311   -0.4331    2.2110 C   0  0  0  0  0  0  0  0  0  0  0  0
    6.6219   -0.4338    2.2159 C   0  0  0  0  0  0  0  0  0  0  0  0
    7.3116   -0.4351    1.0075 C   0  0  0  0  0  0  0  0  0  0  0  0
    8.7316   -0.4355    1.0077 O   0  0  0  0  0  0  0  0  0  0  0  0
    6.6320   -0.4347   -0.2063 C   0  0  0  0  0  0  0  0  0  0  0  0
    5.2412   -0.4344   -0.2053 C   0  0  0  0  0  0  0  0  0  0  0  0
  1  2  2  0
  2  3  1  0
  3  4  1  0
  4  5  1  0
  5  6  1  0
  6  7  1  0
  7  8  1  0
  8  5  1  0
  7  9  1  0
  3 10  1  0
  2 11  1  0
 11 12  1  0
 12 13  1  0
 13 14  2  0
 13 15  1  0
 11 16  1  0
 16 17  1  0
 17 18  2  0
 18 19  1  0
 19 20  2  0
 20 21  1  0
 20 22  1  0
 22 23  2  0
 23 17  1  0
M  CHG  1   7   1
M  END
$$$$
s_2708____10269490____2679674
     RDKit          3D

 20 20  0  0  0  0  0  0  0  0999 V2000
    3.5136    0.1696    6.2192 Cl  0  0  0  0  0  0  0  0  0  0  0  0
    4.2177   -0.1642    4.6189 C   0  0  0  0  0  0  0  0  0  0  0  0
    3.4153   -0.0898    3.4854 C   0  0  0  0  0  0  0  0  0  0  0  0
    3.9789   -0.3536    2.2412 C   0  0  0  0  0  0  0  0  0  0  0  0
    5.3239   -0.6883    2.1228 C   0  0  0  0  0  0  0  0  0  0  0  0
    6.1093   -0.7570    3.2689 C   0  0  0  0  0  0  0  0  0  0  0  0
    5.5653   -0.4965    4.5224 C   0  0  0  0  0  0  0  0  0  0  0  0
    3.1050   -0.2731    1.0000 C   0  0  0  0  0  0  0  0  0  0  0  0
    2.3700    1.0000    1.0000 N   0  0  0  0  0  0  0  0  0  0  0  0
    1.0000    1.0000    1.0000 C   0  0  0  0  0  0  0  0  0  0  0  0
    0.4000   -0.0392    1.0000 O   0  0  0  0  0  0  0  0  0  0  0  0
    0.3150    2.1865    1.0000 N   0  0  0  0  0  0  0  0  0  0  0  0
   -1.1550    2.1865    1.0000 C   0  0  0  0  0  0  0  0  0  0  0  0
   -1.6617    3.6195    1.0000 C   0  0  0  0  0  0  0  0  0  0  0  0
   -3.1817    3.6195    1.0000 C   0  0  0  0  0  0  0  0  0  0  0  0
   -1.1550    4.3361    2.2411 C   0  0  0  0  0  0  0  0  0  0  0  0
   -1.1550    4.3361   -0.2411 C   0  0  0  0  0  0  0  0  0  0  0  0
    3.9789   -0.3536   -0.2411 C   0  0  0  0  0  0  0  0  0  0  0  0
    3.1625   -0.2784   -1.4005 O   0  0  0  0  0  0  0  0  0  0  0  0
    2.7675   -1.5864   -1.7870 C   0  0  0  0  0  0  0  0  0  0  0  0
  1  2  1  0
  2  3  2  0
  3  4  1  0
  4  5  2  0
  5  6  1  0
  6  7  2  0
  7  2  1  0
  4  8  1  0
  8  9  1  0
  9 10  1  0
 10 11  2  0
 10 12  1  0
 12 13  1  0
 13 14  1  0
 14 15  1  0
 14 16  1  0
 14 17  1  0
  8 18  1  0
 18 19  1  0
 19 20  1  0
M  END
$$$$
s_2430a____12875778____8696690
     RDKit          3D

 23 24  0  0  0  0  0  0  0  0999 V2000
    6.0813    1.5792    2.2187 Cl  0  0  0  0  0  0  0  0  0  0  0  0
    5.6882    1.9584    0.5244 C   0  0  0  0  0  0  0  0  0  0  0  0
    4.9532    1.0652   -0.2480 C   0  0  0  0  0  0  0  0  0  0  0  0
    4.6527    1.3740   -1.5704 C   0  0  0  0  0  0  0  0  0  0  0  0
    5.0891    2.5766   -2.1161 C   0  0  0  0  0  0  0  0  0  0  0  0
    5.8241    3.4656   -1.3394 C   0  0  0  0  0  0  0  0  0  0  0  0
    6.1279    3.1623   -0.0162 C   0  0  0  0  0  0  0  0  0  0  0  0
    4.4778   -0.2478    0.3532 C   0  0  0  0  0  0  0  0  0  0  0  0
    3.0721   -0.1976    0.7888 N   0  0  0  0  0  0  0  0  0  0  0  0
    2.3700    1.0000    1.0000 C   0  0  0  0  0  0  0  0  0  0  0  0
    2.9700    2.0234    1.1805 O   0  0  0  0  0  0  0  0  0  0  0  0
    1.0000    1.0000    1.0000 N   0  0  0  0  0  0  0  0  0  0  0  0
    0.2650    2.2731    1.0000 C   0  0  0  0  0  0  0  0  0  0  0  0
   -0.6089    2.3536   -0.2411 C   0  0  0  0  0  0  0  0  0  0  0  0
    0.1558    2.2831   -1.3270 F   0  0  0  0  0  0  0  0  0  0  0  0
   -1.4731    1.3427   -0.2411 F   0  0  0  0  0  0  0  0  0  0  0  0
   -0.6089    2.3536    2.2411 C   0  0  0  0  0  0  0  0  0  0  0  0
   -1.3689    3.6699    2.2411 C   0  0  0  0  0  0  0  0  0  0  0  0
    2.4785   -1.5236    1.0130 C   0  0  0  0  0  0  0  0  0  0  0  0
    2.4190   -2.2980   -0.2940 C   0  0  0  0  0  0  0  0  0  0  0  0
    3.7270   -2.2886   -0.9672 N   0  0  0  0  0  0  0  0  0  0  0  0
    4.7115   -1.3293   -0.6976 C   0  0  0  0  0  0  0  0  0  0  0  0
    5.7482   -1.3622   -1.3422 O   0  0  0  0  0  0  0  0  0  0  0  0
  1  2  1  0
  2  3  2  0
  3  4  1  0
  4  5  2  0
  5  6  1  0
  6  7  2  0
  7  2  1  0
  3  8  1  0
  8  9  1  0
  9 10  1  0
 10 11  2  0
 10 12  1  0
 12 13  1  0
 13 14  1  0
 14 15  1  0
 14 16  1  0
 13 17  1  0
 17 18  1  0
  9 19  1  0
 19 20  1  0
 20 21  1  0
 21 22  1  0
 22  8  1  0
 22 23  2  0
M  END
$$$$
s_22____15107540____17513450
     RDKit          3D

 23 23  0  0  0  0  0  0  0  0999 V2000
    4.9883    3.1737   -1.8237 O   0  0  0  0  0  0  0  0  0  0  0  0
    5.1883    2.1345   -2.3894 C   0  0  0  0  0  0  0  0  0  0  0  0
    4.9700    1.0000   -1.7719 O   0  0  0  0  0  0  0  0  0  0  0  0
    4.4967    1.0000   -0.4331 C   0  0  0  0  0  0  0  0  0  0  0  0
    2.9767    1.0000   -0.4331 C   0  0  0  0  0  0  0  0  0  0  0  0
    2.4700    1.0000    1.0000 C   0  0  0  0  0  0  0  0  0  0  0  0
    1.0000    1.0000    1.0000 N   0  0  0  0  0  0  0  0  0  0  0  0
    0.3150    1.0000    2.1865 C   0  0  0  0  0  0  0  0  0  0  0  0
    0.9150    1.0000    3.2257 O   0  0  0  0  0  0  0  0  0  0  0  0
   -1.2050    1.0000    2.1865 C   0  0  0  0  0  0  0  0  0  0  0  0
   -1.6950    1.0000    3.5724 N   0  0  0  0  0  0  0  0  0  0  0  0
   -2.4826    2.0275    4.0205 C   0  0  0  0  0  0  0  0  0  0  0  0
   -2.7725    2.9275    3.2816 O   0  0  0  0  0  0  0  0  0  0  0  0
   -2.9893    2.0275    5.4535 C   0  0  0  0  0  0  0  0  0  0  0  0
   -1.7117   -0.2411    1.4699 C   0  0  0  0  0  0  0  0  0  0  0  0
   -3.2317   -0.2411    1.4699 C   0  0  0  0  0  0  0  0  0  0  0  0
   -3.9161    0.3644    0.4212 C   0  0  0  0  0  0  0  0  0  0  0  0
   -5.3069    0.3662    0.4166 C   0  0  0  0  0  0  0  0  0  0  0  0
   -5.9966   -0.2391    1.4624 C   0  0  0  0  0  0  0  0  0  0  0  0
   -7.3464   -0.2393    1.4621 O   0  0  0  0  0  0  0  0  0  0  0  0
   -5.3170   -0.8457    2.5138 C   0  0  0  0  0  0  0  0  0  0  0  0
   -3.9262   -0.8449    2.5131 C   0  0  0  0  0  0  0  0  0  0  0  0
    5.6450    2.1345   -3.6810 N   0  0  0  0  0  0  0  0  0  0  0  0
  1  2  2  0
  2  3  1  0
  3  4  1  0
  4  5  1  0
  5  6  1  0
  6  7  1  0
  7  8  1  0
  8  9  2  0
  8 10  1  0
 10 11  1  0
 11 12  1  0
 12 13  2  0
 12 14  1  0
 10 15  1  0
 15 16  1  0
 16 17  2  0
 17 18  1  0
 18 19  2  0
 19 20  1  0
 19 21  1  0
 21 22  2  0
 22 16  1  0
  2 23  1  0
M  END
$$$$
s_11a____10903210____217443
     RDKit          3D

 21 21  0  0  0  0  0  0  0  0999 V2000
    0.4000    1.0000   -0.0392 O   0  0  0  0  0  0  0  0  0  0  0  0
    1.0000    1.0000    1.0000 C   0  0  0  0  0  0  0  0  0  0  0  0
    0.3150    1.0000    2.1865 N   0  0  0  0  0  0  0  0  0  0  0  0
   -1.1550    1.0000    2.1865 C   0  0  0  0  0  0  0  0  0  0  0  0
   -1.6617    2.2411    2.9030 C   0  0  0  0  0  0  0  0  0  0  0  0
   -2.0583    3.2127    3.4640 C   0  0  0  0  0  0  0  0  0  0  0  0
   -1.6617   -0.2411    2.9030 C   0  0  0  0  0  0  0  0  0  0  0  0
   -3.1817   -0.2411    2.9030 C   0  0  0  0  0  0  0  0  0  0  0  0
    2.5200    1.0000    1.0000 C   0  0  0  0  0  0  0  0  0  0  0  0
    3.0267    1.4309   -0.3667 C   0  0  0  0  0  0  0  0  0  0  0  0
    4.4521    1.7778   -0.2739 N   0  0  0  0  0  0  0  0  0  0  0  0
    4.8720    3.0415   -0.5957 C   0  0  0  0  0  0  0  0  0  0  0  0
    4.0761    3.8653   -0.9534 O   0  0  0  0  0  0  0  0  0  0  0  0
    6.3460    3.4001   -0.4997 C   0  0  0  0  0  0  0  0  0  0  0  0
    2.8459    0.2915   -1.3566 C   0  0  0  0  0  0  0  0  0  0  0  0
    3.4350   -0.9427   -1.1022 C   0  0  0  0  0  0  0  0  0  0  0  0
    3.2672   -1.9815   -2.0115 C   0  0  0  0  0  0  0  0  0  0  0  0
    2.5127   -1.7750   -3.1622 C   0  0  0  0  0  0  0  0  0  0  0  0
    1.9217   -0.5408   -3.4146 C   0  0  0  0  0  0  0  0  0  0  0  0
    2.0907    0.4987   -2.5058 C   0  0  0  0  0  0  0  0  0  0  0  0
    2.3341   -2.9141   -4.1531 C   0  0  0  0  0  0  0  0  0  0  0  0
  1  2  2  0
  2  3  1  0
  3  4  1  0
  4  5  1  0
  5  6  3  0
  4  7  1  0
  7  8  1  0
  2  9  1  0
  9 10  1  0
 10 11  1  0
 11 12  1  0
 12 13  2  0
 12 14  1  0
 10 15  1  0
 15 16  2  0
 16 17  1  0
 17 18  2  0
 18 19  1  0
 19 20  2  0
 20 15  1  0
 18 21  1  0
M  END
$$$$
s_240690a____11965284____7408864
     RDKit          3D

 21 21  0  0  0  0  0  0  0  0999 V2000
    2.2958   -3.7685   -3.7389 Cl  0  0  0  0  0  0  0  0  0  0  0  0
    2.5117   -2.2967   -2.7617 C   0  0  0  0  0  0  0  0  0  0  0  0
    3.2657   -2.3459   -1.5945 C   0  0  0  0  0  0  0  0  0  0  0  0
    3.4364   -1.1979   -0.8273 C   0  0  0  0  0  0  0  0  0  0  0  0
    2.8459   -0.0094   -1.2435 C   0  0  0  0  0  0  0  0  0  0  0  0
    2.0917    0.0402   -2.4105 C   0  0  0  0  0  0  0  0  0  0  0  0
    1.9209   -1.1080   -3.1778 C   0  0  0  0  0  0  0  0  0  0  0  0
    3.0267    1.2488   -0.4113 C   0  0  0  0  0  0  0  0  0  0  0  0
    4.4521    1.6048   -0.3645 N   0  0  0  0  0  0  0  0  0  0  0  0
    4.8720    2.8157   -0.8486 C   0  0  0  0  0  0  0  0  0  0  0  0
    4.0761    3.5858   -1.3107 O   0  0  0  0  0  0  0  0  0  0  0  0
    6.3460    3.1838   -0.8002 C   0  0  0  0  0  0  0  0  0  0  0  0
    2.5200    1.0000    1.0000 C   0  0  0  0  0  0  0  0  0  0  0  0
    1.0000    1.0000    1.0000 C   0  0  0  0  0  0  0  0  0  0  0  0
    0.4000    1.0000   -0.0392 O   0  0  0  0  0  0  0  0  0  0  0  0
    0.3150    1.0000    2.1865 N   0  0  0  0  0  0  0  0  0  0  0  0
   -1.1550    1.0000    2.1865 C   0  0  0  0  0  0  0  0  0  0  0  0
   -1.6617   -0.4331    2.1865 C   0  0  0  0  0  0  0  0  0  0  0  0
   -3.1817   -0.4331    2.1865 C   0  0  0  0  0  0  0  0  0  0  0  0
   -3.6717   -1.8190    2.1865 N   0  0  0  0  0  0  0  0  0  0  0  0
    1.0500    1.0000    3.4595 C   0  0  0  0  0  0  0  0  0  0  0  0
  1  2  1  0
  2  3  2  0
  3  4  1  0
  4  5  2  0
  5  6  1  0
  6  7  2  0
  7  2  1  0
  5  8  1  0
  8  9  1  0
  9 10  1  0
 10 11  2  0
 10 12  1  0
  8 13  1  0
 13 14  1  0
 14 15  2  0
 14 16  1  0
 16 17  1  0
 17 18  1  0
 18 19  1  0
 19 20  1  0
 16 21  1  0
M  CHG  1  20   1
M  END
$$$$
s_8____14594092____11685364
     RDKit          3D

 22 22  0  0  0  0  0  0  0  0999 V2000
    0.1750   -0.4289    1.0000 S   0  0  0  0  0  0  0  0  0  0  0  0
    1.0000    1.0000    1.0000 C   0  0  0  0  0  0  0  0  0  0  0  0
    2.3700    1.0000    1.0000 N   0  0  0  0  0  0  0  0  0  0  0  0
    3.1050    2.2731    1.0000 C   0  0  0  0  0  0  0  0  0  0  0  0
    3.0371    2.8973    2.3842 C   0  0  0  0  0  0  0  0  0  0  0  0
    2.8634    2.2032    3.3476 O   0  0  0  0  0  0  0  0  0  0  0  0
    3.1743    4.2524    2.5321 N   0  0  0  0  0  0  0  0  0  0  0  0
    3.0566    5.1350    1.3624 C   0  0  0  0  0  0  0  0  0  0  0  0
    3.4393    4.8237    3.8603 C   0  0  0  0  0  0  0  0  0  0  0  0
    4.5571    2.0197    0.6291 C   0  0  0  0  0  0  0  0  0  0  0  0
    4.6867    1.9363   -0.8834 C   0  0  0  0  0  0  0  0  0  0  0  0
    4.5501    0.7070   -1.5199 C   0  0  0  0  0  0  0  0  0  0  0  0
    4.6702    0.6350   -2.9039 C   0  0  0  0  0  0  0  0  0  0  0  0
    4.9238    1.7870   -3.6409 C   0  0  0  0  0  0  0  0  0  0  0  0
    5.0578    3.0096   -2.9945 C   0  0  0  0  0  0  0  0  0  0  0  0
    4.9405    3.0947   -1.6110 C   0  0  0  0  0  0  0  0  0  0  0  0
    0.3150    2.1865    1.0000 N   0  0  0  0  0  0  0  0  0  0  0  0
   -1.1550    2.1865    1.0000 C   0  0  0  0  0  0  0  0  0  0  0  0
   -1.6617    3.6195    1.0000 C   0  0  0  0  0  0  0  0  0  0  0  0
   -3.1817    3.6195    1.0000 C   0  0  0  0  0  0  0  0  0  0  0  0
   -1.1550    4.3361    2.2411 C   0  0  0  0  0  0  0  0  0  0  0  0
   -1.1550    4.3361   -0.2411 C   0  0  0  0  0  0  0  0  0  0  0  0
  1  2  2  0
  2  3  1  0
  3  4  1  0
  4  5  1  0
  5  6  2  0
  5  7  1  0
  7  8  1  0
  7  9  1  0
  4 10  1  0
 10 11  1  0
 11 12  2  0
 12 13  1  0
 13 14  2  0
 14 15  1  0
 15 16  2  0
 16 11  1  0
  2 17  1  0
 17 18  1  0
 18 19  1  0
 19 20  1  0
 19 21  1  0
 19 22  1  0
M  END
$$$$
s_240690a____16942188____17513472
     RDKit          3D

 23 25  0  0  0  0  0  0  0  0999 V2000
   -1.0213    2.0766    0.4260 O   0  0  0  0  0  0  0  0  0  0  0  0
    0.1224    1.8776    0.1224 C   0  0  0  0  0  0  0  0  0  0  0  0
    0.6373    2.4413   -1.0152 N   0  0  0  0  0  0  0  0  0  0  0  0
   -0.2087    3.2873   -1.8611 C   0  0  0  0  0  0  0  0  0  0  0  0
   -0.3797    2.7894   -3.2892 C   0  0  0  0  0  0  0  0  0  0  0  0
   -1.5132    1.8764   -3.7105 C   0  0  0  0  0  0  0  0  0  0  0  0
   -0.6079    1.3989   -4.7605 N   0  0  0  0  0  0  0  0  0  0  0  0
    0.5076    1.7051   -3.8724 C   0  0  0  0  0  0  0  0  0  0  0  0
   -0.2762    4.2393   -3.6969 C   0  0  0  0  0  0  0  0  0  0  0  0
    0.5754    4.4415   -2.4692 C   0  0  0  0  0  0  0  0  0  0  0  0
    1.0000    1.0000    1.0000 C   0  0  0  0  0  0  0  0  0  0  0  0
    1.8487    0.1513    0.1513 N   0  0  0  0  0  0  0  0  0  0  0  0
    1.7598   -1.2129    0.2402 C   0  0  0  0  0  0  0  0  0  0  0  0
    0.9891   -1.7150    1.0109 O   0  0  0  0  0  0  0  0  0  0  0  0
    2.6374   -2.0905   -0.6374 C   0  0  0  0  0  0  0  0  0  0  0  0
    1.8776    1.8776    1.8776 C   0  0  0  0  0  0  0  0  0  0  0  0
    1.0000    2.7552    2.7552 C   0  0  0  0  0  0  0  0  0  0  0  0
    0.6049    2.2940    4.0066 C   0  0  0  0  0  0  0  0  0  0  0  0
   -0.1975    3.0939    4.8134 C   0  0  0  0  0  0  0  0  0  0  0  0
   -0.5947    4.3470    4.3576 C   0  0  0  0  0  0  0  0  0  0  0  0
   -1.3737    5.1264    5.1372 O   0  0  0  0  0  0  0  0  0  0  0  0
   -0.2026    4.8128    3.1068 C   0  0  0  0  0  0  0  0  0  0  0  0
    0.6001    4.0090    2.3044 C   0  0  0  0  0  0  0  0  0  0  0  0
  1  2  2  0
  2  3  1  0
  3  4  1  0
  4  5  1  0
  5  6  1  0
  6  7  1  0
  7  8  1  0
  8  5  1  0
  5  9  1  0
  9 10  1  0
 10  4  1  0
  2 11  1  0
 11 12  1  0
 12 13  1  0
 13 14  2  0
 13 15  1  0
 11 16  1  0
 16 17  1  0
 17 18  2  0
 18 19  1  0
 19 20  2  0
 20 21  1  0
 20 22  1  0
 22 23  2  0
 23 17  1  0
M  CHG  1   7   1
M  END
$$$$
s_2554____4509336____788516
     RDKit          3D

 18 18  0  0  0  0  0  0  0  0999 V2000
    2.9700    2.0392    1.0000 O   0  0  0  0  0  0  0  0  0  0  0  0
    2.3700    1.0000    1.0000 C   0  0  0  0  0  0  0  0  0  0  0  0
    3.0550   -0.1865    1.0000 N   0  0  0  0  0  0  0  0  0  0  0  0
    4.5250   -0.1865    1.0000 C   0  0  0  0  0  0  0  0  0  0  0  0
    5.0315   -0.1865    2.4325 C   0  0  0  0  0  0  0  0  0  0  0  0
    5.2564   -1.4029    3.0686 C   0  0  0  0  0  0  0  0  0  0  0  0
    5.7207   -1.4008    4.3793 C   0  0  0  0  0  0  0  0  0  0  0  0
    5.9561   -2.6307    5.0488 O   0  0  0  0  0  0  0  0  0  0  0  0
    5.9560   -0.2015    5.0439 C   0  0  0  0  0  0  0  0  0  0  0  0
    5.7261    1.0090    4.3973 C   0  0  0  0  0  0  0  0  0  0  0  0
    5.2627    1.0200    3.0858 C   0  0  0  0  0  0  0  0  0  0  0  0
    5.0317   -1.4275    0.2835 C   0  0  0  0  0  0  0  0  0  0  0  0
    2.3200   -1.4595    1.0000 C   0  0  0  0  0  0  0  0  0  0  0  0
    1.0000    1.0000    1.0000 N   0  0  0  0  0  0  0  0  0  0  0  0
    0.2650    2.2731    1.0000 C   0  0  0  0  0  0  0  0  0  0  0  0
    0.0117    2.7118   -0.4331 C   0  0  0  0  0  0  0  0  0  0  0  0
   -0.7483    4.0282   -0.4331 C   0  0  0  0  0  0  0  0  0  0  0  0
   -1.0017    4.4670   -1.8661 C   0  0  0  0  0  0  0  0  0  0  0  0
  1  2  2  0
  2  3  1  0
  3  4  1  0
  4  5  1  0
  5  6  2  0
  6  7  1  0
  7  8  1  0
  7  9  2  0
  9 10  1  0
 10 11  2  0
 11  5  1  0
  4 12  1  0
  3 13  1  0
  2 14  1  0
 14 15  1  0
 15 16  1  0
 16 17  1  0
 17 18  1  0
M  END
$$$$
s_2708____10546048____16639436
     RDKit          3D

 20 20  0  0  0  0  0  0  0  0999 V2000
    6.5500   -0.1748    6.7169 Cl  0  0  0  0  0  0  0  0  0  0  0  0
    5.9550   -0.1798    5.0392 C   0  0  0  0  0  0  0  0  0  0  0  0
    5.7245   -1.3879    4.3907 C   0  0  0  0  0  0  0  0  0  0  0  0
    5.2602   -1.3963    3.0793 C   0  0  0  0  0  0  0  0  0  0  0  0
    5.0315   -0.1865    2.4325 C   0  0  0  0  0  0  0  0  0  0  0  0
    5.2621    1.0219    3.0805 C   0  0  0  0  0  0  0  0  0  0  0  0
    5.7266    1.0303    4.3922 C   0  0  0  0  0  0  0  0  0  0  0  0
    4.5250   -0.1865    1.0000 C   0  0  0  0  0  0  0  0  0  0  0  0
    3.0550   -0.1865    1.0000 N   0  0  0  0  0  0  0  0  0  0  0  0
    2.3700    1.0000    1.0000 C   0  0  0  0  0  0  0  0  0  0  0  0
    2.9700    2.0392    1.0000 O   0  0  0  0  0  0  0  0  0  0  0  0
    1.0000    1.0000    1.0000 N   0  0  0  0  0  0  0  0  0  0  0  0
    0.2650    2.2731    1.0000 C   0  0  0  0  0  0  0  0  0  0  0  0
    0.0117    2.7118   -0.4331 C   0  0  0  0  0  0  0  0  0  0  0  0
   -0.7483    4.0282   -0.4331 C   0  0  0  0  0  0  0  0  0  0  0  0
   -1.9105    3.8692    0.1939 F   0  0  0  0  0  0  0  0  0  0  0  0
   -1.0017    4.4670   -1.8661 C   0  0  0  0  0  0  0  0  0  0  0  0
    2.3200   -1.4595    1.0000 C   0  0  0  0  0  0  0  0  0  0  0  0
    2.0667   -1.8983   -0.4331 C   0  0  0  0  0  0  0  0  0  0  0  0
    1.3567   -3.1281   -0.4331 O   0  0  0  0  0  0  0  0  0  0  0  0
  1  2  1  0
  2  3  2  0
  3  4  1  0
  4  5  2  0
  5  6  1  0
  6  7  2  0
  7  2  1  0
  5  8  1  0
  8  9  1  0
  9 10  1  0
 10 11  2  0
 10 12  1  0
 12 13  1  0
 13 14  1  0
 14 15  1  0
 15 16  1  0
 15 17  1  0
  9 18  1  0
 18 19  1  0
 19 20  1  0
M  END
$$$$
s_22____16487112____12624298
     RDKit          3D

 22 23  0  0  0  0  0  0  0  0999 V2000
   -4.9718    1.6148    2.2810 Br  0  0  0  0  0  0  0  0  0  0  0  0
   -3.5064    1.7632    0.9881 C   0  0  0  0  0  0  0  0  0  0  0  0
   -2.2091    1.9780    1.4403 C   0  0  0  0  0  0  0  0  0  0  0  0
   -1.1798    2.0818    0.5098 C   0  0  0  0  0  0  0  0  0  0  0  0
   -1.4333    1.9740   -0.8534 C   0  0  0  0  0  0  0  0  0  0  0  0
   -2.7384    1.7598   -1.2841 C   0  0  0  0  0  0  0  0  0  0  0  0
   -3.7819    1.6529   -0.3707 C   0  0  0  0  0  0  0  0  0  0  0  0
    0.2400    2.3164    1.0000 C   0  0  0  0  0  0  0  0  0  0  0  0
    0.9144    3.2716    0.1091 N   0  0  0  0  0  0  0  0  0  0  0  0
    1.3899    4.4555    0.6082 C   0  0  0  0  0  0  0  0  0  0  0  0
    1.2557    4.7128    1.7726 O   0  0  0  0  0  0  0  0  0  0  0  0
    2.0873    5.4432   -0.3129 C   0  0  0  0  0  0  0  0  0  0  0  0
    1.0000    1.0000    1.0000 C   0  0  0  0  0  0  0  0  0  0  0  0
    0.4000   -0.0392    1.0000 O   0  0  0  0  0  0  0  0  0  0  0  0
    2.3700    1.0000    1.0000 N   0  0  0  0  0  0  0  0  0  0  0  0
    3.1050   -0.2731    1.0000 C   0  0  0  0  0  0  0  0  0  0  0  0
    4.5987    0.0046    1.0000 C   0  0  0  0  0  0  0  0  0  0  0  0
    5.0039    0.8020   -0.2297 C   0  0  0  0  0  0  0  0  0  0  0  0
    6.1932    0.6584   -0.7346 C   0  0  0  0  0  0  0  0  0  0  0  0
    5.1798    0.5418    2.2960 C   0  0  0  0  0  0  0  0  0  0  0  0
    5.3692   -0.8919    2.7268 C   0  0  0  0  0  0  0  0  0  0  0  0
    5.4843   -1.1923    1.2498 C   0  0  0  0  0  0  0  0  0  0  0  0
  1  2  1  0
  2  3  2  0
  3  4  1  0
  4  5  2  0
  5  6  1  0
  6  7  2  0
  7  2  1  0
  4  8  1  0
  8  9  1  0
  9 10  1  0
 10 11  2  0
 10 12  1  0
  8 13  1  0
 13 14  2  0
 13 15  1  0
 15 16  1  0
 16 17  1  0
 17 18  1  0
 18 19  2  0
 17 20  1  0
 20 21  1  0
 21 22  1  0
 22 17  1  0
M  END
$$$$
s_2708____16492918____5535004
     RDKit          3D

 22 22  0  0  0  0  0  0  0  0999 V2000
    6.3333   -1.8661    1.0000 F   0  0  0  0  0  0  0  0  0  0  0  0
    5.0033   -1.8661    1.0000 C   0  0  0  0  0  0  0  0  0  0  0  0
    4.5600   -2.4931    2.0859 F   0  0  0  0  0  0  0  0  0  0  0  0
    4.4967   -0.4331    1.0000 C   0  0  0  0  0  0  0  0  0  0  0  0
    2.9767   -0.4331    1.0000 C   0  0  0  0  0  0  0  0  0  0  0  0
    2.4700    1.0000    1.0000 C   0  0  0  0  0  0  0  0  0  0  0  0
    1.0000    1.0000    1.0000 N   0  0  0  0  0  0  0  0  0  0  0  0
    0.3150    1.0000    2.1865 C   0  0  0  0  0  0  0  0  0  0  0  0
    0.9150    1.0000    3.2257 O   0  0  0  0  0  0  0  0  0  0  0  0
   -1.0550    1.0000    2.1865 N   0  0  0  0  0  0  0  0  0  0  0  0
   -1.7900    1.0000    0.9134 C   0  0  0  0  0  0  0  0  0  0  0  0
   -2.0434   -0.4334    0.4745 C   0  0  0  0  0  0  0  0  0  0  0  0
   -3.2047   -1.0830    0.8798 C   0  0  0  0  0  0  0  0  0  0  0  0
   -3.4322   -2.3948    0.4767 C   0  0  0  0  0  0  0  0  0  0  0  0
   -2.5026   -3.0467   -0.3268 C   0  0  0  0  0  0  0  0  0  0  0  0
   -1.3464   -2.3877   -0.7259 C   0  0  0  0  0  0  0  0  0  0  0  0
   -1.1070   -1.0762   -0.3290 C   0  0  0  0  0  0  0  0  0  0  0  0
   -1.7900    1.0000    3.4595 C   0  0  0  0  0  0  0  0  0  0  0  0
   -2.0433    2.4331    3.8983 C   0  0  0  0  0  0  0  0  0  0  0  0
   -0.8026    3.1025    4.0681 O   0  0  0  0  0  0  0  0  0  0  0  0
   -2.8033    2.4331    5.2147 C   0  0  0  0  0  0  0  0  0  0  0  0
    5.0033    0.2835   -0.2411 C   0  0  0  0  0  0  0  0  0  0  0  0
  1  2  1  0
  2  3  1  0
  2  4  1  0
  4  5  1  0
  5  6  1  0
  6  7  1  0
  7  8  1  0
  8  9  2  0
  8 10  1  0
 10 11  1  0
 11 12  1  0
 12 13  2  0
 13 14  1  0
 14 15  2  0
 15 16  1  0
 16 17  2  0
 17 12  1  0
 10 18  1  0
 18 19  1  0
 19 20  1  0
 19 21  1  0
  4 22  1  0
M  END
$$$$
s_22____10176180____3003738
     RDKit          3D

 23 23  0  0  0  0  0  0  0  0999 V2000
   -2.1344    3.5628    1.0000 S   0  0  0  0  0  0  0  0  0  0  0  0
   -3.8242    2.9142    1.0000 C   0  0  0  0  0  0  0  0  0  0  0  0
   -4.1216    2.2750   -0.3466 C   0  0  0  0  0  0  0  0  0  0  0  0
   -3.9671    1.8726    2.0978 C   0  0  0  0  0  0  0  0  0  0  0  0
   -1.2294    1.9953    1.0000 C   0  0  0  0  0  0  0  0  0  0  0  0
    0.2650    2.2731    1.0000 C   0  0  0  0  0  0  0  0  0  0  0  0
    1.0000    1.0000    1.0000 N   0  0  0  0  0  0  0  0  0  0  0  0
    2.3700    1.0000    1.0000 C   0  0  0  0  0  0  0  0  0  0  0  0
    2.9700   -0.0038    0.7310 O   0  0  0  0  0  0  0  0  0  0  0  0
    3.1300    2.2715    1.3407 C   0  0  0  0  0  0  0  0  0  0  0  0
    3.8078    2.1101    2.6916 C   0  0  0  0  0  0  0  0  0  0  0  0
    4.5428    3.3398    3.0211 N   0  0  0  0  0  0  0  0  0  0  0  0
    5.8972    3.2951    3.2224 C   0  0  0  0  0  0  0  0  0  0  0  0
    6.4835    2.2522    3.1298 O   0  0  0  0  0  0  0  0  0  0  0  0
    6.6572    4.5666    3.5631 C   0  0  0  0  0  0  0  0  0  0  0  0
    2.7564    1.8469    3.7579 C   0  0  0  0  0  0  0  0  0  0  0  0
    2.5893    0.5696    4.2828 C   0  0  0  0  0  0  0  0  0  0  0  0
    3.3547   -0.4260    3.8465 F   0  0  0  0  0  0  0  0  0  0  0  0
    1.6288    0.3235    5.2580 C   0  0  0  0  0  0  0  0  0  0  0  0
    0.8336    1.3736    5.7051 C   0  0  0  0  0  0  0  0  0  0  0  0
    0.9885    2.6567    5.1906 C   0  0  0  0  0  0  0  0  0  0  0  0
    1.9534    2.8876    4.2151 C   0  0  0  0  0  0  0  0  0  0  0  0
    2.1127    4.1091    3.7135 F   0  0  0  0  0  0  0  0  0  0  0  0
  1  2  1  0
  2  3  1  0
  2  4  1  0
  1  5  1  0
  5  6  1  0
  6  7  1  0
  7  8  1  0
  8  9  2  0
  8 10  1  0
 10 11  1  0
 11 12  1  0
 12 13  1  0
 13 14  2  0
 13 15  1  0
 11 16  1  0
 16 17  2  0
 17 18  1  0
 17 19  1  0
 19 20  2  0
 20 21  1  0
 21 22  2  0
 22 16  1  0
 22 23  1  0
M  END
$$$$
s_22____13427692____17513450
     RDKit          3D

 23 25  0  0  0  0  0  0  0  0999 V2000
    3.0596    1.6786    1.9338 O   0  0  0  0  0  0  0  0  0  0  0  0
    1.8776    1.8776    1.8776 C   0  0  0  0  0  0  0  0  0  0  0  0
    1.3190    2.8957    2.6044 N   0  0  0  0  0  0  0  0  0  0  0  0
    2.1608    3.7375    3.4461 C   0  0  0  0  0  0  0  0  0  0  0  0
    2.1629    5.2064    3.1158 C   0  0  0  0  0  0  0  0  0  0  0  0
    3.3470    6.1491    2.9548 C   0  0  0  0  0  0  0  0  0  0  0  0
    2.3987    7.1516    2.3509 C   0  0  0  0  0  0  0  0  0  0  0  0
    3.0068    7.8432    1.2682 O   0  0  0  0  0  0  0  0  0  0  0  0
    1.6846    5.9175    1.8703 C   0  0  0  0  0  0  0  0  0  0  0  0
    1.4428    4.7129    4.3398 C   0  0  0  0  0  0  0  0  0  0  0  0
    1.0000    1.0000    1.0000 C   0  0  0  0  0  0  0  0  0  0  0  0
   -0.2629    0.7171    1.6971 N   0  0  0  0  0  0  0  0  0  0  0  0
   -0.6150   -0.5766    1.9787 C   0  0  0  0  0  0  0  0  0  0  0  0
    0.1075   -1.4788    1.6563 O   0  0  0  0  0  0  0  0  0  0  0  0
   -1.9209   -0.8691    2.6995 C   0  0  0  0  0  0  0  0  0  0  0  0
    0.7075    1.7208   -0.3059 C   0  0  0  0  0  0  0  0  0  0  0  0
   -0.1701    0.8432   -1.1835 C   0  0  0  0  0  0  0  0  0  0  0  0
   -1.5540    0.9425   -1.0842 C   0  0  0  0  0  0  0  0  0  0  0  0
   -2.3610    0.1420   -1.8857 C   0  0  0  0  0  0  0  0  0  0  0  0
   -1.7726   -0.7486   -2.7781 C   0  0  0  0  0  0  0  0  0  0  0  0
   -2.5520   -1.5276   -3.5577 O   0  0  0  0  0  0  0  0  0  0  0  0
   -0.3891   -0.8520   -2.8811 C   0  0  0  0  0  0  0  0  0  0  0  0
    0.4131   -0.0489   -2.0774 C   0  0  0  0  0  0  0  0  0  0  0  0
  1  2  2  0
  2  3  1  0
  3  4  1  0
  4  5  1  0
  5  6  1  0
  6  7  1  0
  7  8  1  0
  7  9  1  0
  9  5  1  0
  5 10  1  0
 10  4  1  0
  2 11  1  0
 11 12  1  0
 12 13  1  0
 13 14  2  0
 13 15  1  0
 11 16  1  0
 16 17  1  0
 17 18  2  0
 18 19  1  0
 19 20  2  0
 20 21  1  0
 20 22  1  0
 22 23  2  0
 23 17  1  0
M  END
$$$$
s_22____15086876____17513450
     RDKit          3D

 23 24  0  0  0  0  0  0  0  0999 V2000
    0.4000    1.9154    1.4919 O   0  0  0  0  0  0  0  0  0  0  0  0
    1.0000    1.0000    1.0000 C   0  0  0  0  0  0  0  0  0  0  0  0
    2.4095    1.0000    1.0000 N   0  0  0  0  0  0  0  0  0  0  0  0
    3.4527    1.9031    1.4853 C   0  0  0  0  0  0  0  0  0  0  0  0
    4.3156    0.6726    1.6008 C   0  0  0  0  0  0  0  0  0  0  0  0
    5.6587    0.9012    1.2005 O   0  0  0  0  0  0  0  0  0  0  0  0
    3.4523    0.1200    0.4804 C   0  0  0  0  0  0  0  0  0  0  0  0
    4.1906   -0.0620    2.9256 C   0  0  0  0  0  0  0  0  0  0  0  0
    5.1038   -1.2771    2.9193 C   0  0  0  0  0  0  0  0  0  0  0  0
    4.9788   -2.0117    4.2441 C   0  0  0  0  0  0  0  0  0  0  0  0
    0.2400   -0.1596    0.3769 C   0  0  0  0  0  0  0  0  0  0  0  0
   -1.0444    0.3233   -0.1503 N   0  0  0  0  0  0  0  0  0  0  0  0
   -1.1292    0.7733   -1.4415 C   0  0  0  0  0  0  0  0  0  0  0  0
   -0.1550    0.7734   -2.1421 O   0  0  0  0  0  0  0  0  0  0  0  0
   -2.4574    1.2726   -1.9866 C   0  0  0  0  0  0  0  0  0  0  0  0
   -0.0133   -1.2244    1.4316 C   0  0  0  0  0  0  0  0  0  0  0  0
   -0.7734   -2.3840    0.8085 C   0  0  0  0  0  0  0  0  0  0  0  0
   -0.0668   -3.4394    0.2414 C   0  0  0  0  0  0  0  0  0  0  0  0
   -0.7580   -4.5030   -0.3292 C   0  0  0  0  0  0  0  0  0  0  0  0
   -2.1493   -4.4975   -0.3249 C   0  0  0  0  0  0  0  0  0  0  0  0
   -2.8591   -5.5810   -0.9066 O   0  0  0  0  0  0  0  0  0  0  0  0
   -2.8607   -3.4443    0.2407 C   0  0  0  0  0  0  0  0  0  0  0  0
   -2.1644   -2.3835    0.8103 C   0  0  0  0  0  0  0  0  0  0  0  0
  1  2  2  0
  2  3  1  0
  3  4  1  0
  4  5  1  0
  5  6  1  0
  5  7  1  0
  7  3  1  0
  5  8  1  0
  8  9  1  0
  9 10  1  0
  2 11  1  0
 11 12  1  0
 12 13  1  0
 13 14  2  0
 13 15  1  0
 11 16  1  0
 16 17  1  0
 17 18  2  0
 18 19  1  0
 19 20  2  0
 20 21  1  0
 20 22  1  0
 22 23  2  0
 23 17  1  0
M  END
$$$$
s_270062____7629082____8147258
     RDKit          3D

 18 18  0  0  0  0  0  0  0  0999 V2000
    8.8219    3.3618    2.2273 Cl  0  0  0  0  0  0  0  0  0  0  0  0
    8.7516    1.5846    2.1565 C   0  0  0  0  0  0  0  0  0  0  0  0
    7.3001    1.1338    2.1763 C   0  0  0  0  0  0  0  0  0  0  0  0
    6.7545    0.9134    3.2221 O   0  0  0  0  0  0  0  0  0  0  0  0
    6.6147    0.9791    1.0002 N   0  0  0  0  0  0  0  0  0  0  0  0
    5.2153    0.9799    1.0000 C   0  0  0  0  0  0  0  0  0  0  0  0
    4.5197   -0.2237    0.9475 C   0  0  0  0  0  0  0  0  0  0  0  0
    3.1287   -0.2134    0.9480 C   0  0  0  0  0  0  0  0  0  0  0  0
    2.4501    1.0000    1.0000 C   0  0  0  0  0  0  0  0  0  0  0  0
    3.1449    2.2034    1.0523 C   0  0  0  0  0  0  0  0  0  0  0  0
    4.5359    2.1932    1.0521 C   0  0  0  0  0  0  0  0  0  0  0  0
    1.0000    1.0000    1.0000 C   0  0  0  0  0  0  0  0  0  0  0  0
    0.4000   -0.0383    0.9555 O   0  0  0  0  0  0  0  0  0  0  0  0
    0.3150    2.1854    1.0508 N   0  0  0  0  0  0  0  0  0  0  0  0
   -1.1550    2.1854    1.0508 C   0  0  0  0  0  0  0  0  0  0  0  0
   -1.6617    2.1240    2.4826 C   0  0  0  0  0  0  0  0  0  0  0  0
   -3.1817    2.1240    2.4826 C   0  0  0  0  0  0  0  0  0  0  0  0
   -1.6617    3.4560    0.3881 C   0  0  0  0  0  0  0  0  0  0  0  0
  1  2  1  0
  2  3  1  0
  3  4  2  0
  3  5  1  0
  5  6  1  0
  6  7  2  0
  7  8  1  0
  8  9  2  0
  9 10  1  0
 10 11  2  0
 11  6  1  0
  9 12  1  0
 12 13  2  0
 12 14  1  0
 14 15  1  0
 15 16  1  0
 16 17  1  0
 15 18  1  0
M  END
$$$$
s_22____9277640____17513450
     RDKit          3D

 21 21  0  0  0  0  0  0  0  0999 V2000
    2.9700    2.0392    1.0000 O   0  0  0  0  0  0  0  0  0  0  0  0
    2.3700    1.0000    1.0000 C   0  0  0  0  0  0  0  0  0  0  0  0
    1.0000    1.0000    1.0000 N   0  0  0  0  0  0  0  0  0  0  0  0
    0.2650    2.2731    1.0000 C   0  0  0  0  0  0  0  0  0  0  0  0
    0.2272    2.8363   -0.4113 C   0  0  0  0  0  0  0  0  0  0  0  0
   -0.9141    3.0403   -0.9993 C   0  0  0  0  0  0  0  0  0  0  0  0
   -0.9519    3.6036   -2.4106 C   0  0  0  0  0  0  0  0  0  0  0  0
   -2.2107    2.7158   -0.2756 C   0  0  0  0  0  0  0  0  0  0  0  0
    3.1300   -0.3164    1.0000 C   0  0  0  0  0  0  0  0  0  0  0  0
    4.5752   -0.0477    1.0000 N   0  0  0  0  0  0  0  0  0  0  0  0
    5.3571   -0.5058    2.0275 C   0  0  0  0  0  0  0  0  0  0  0  0
    4.8622   -1.1263    2.9275 O   0  0  0  0  0  0  0  0  0  0  0  0
    6.8515   -0.2281    2.0275 C   0  0  0  0  0  0  0  0  0  0  0  0
    2.7628   -1.1134   -0.2411 C   0  0  0  0  0  0  0  0  0  0  0  0
    3.5228   -2.4298   -0.2411 C   0  0  0  0  0  0  0  0  0  0  0  0
    2.9568   -3.5469    0.3644 C   0  0  0  0  0  0  0  0  0  0  0  0
    3.6482   -4.7537    0.3662 C   0  0  0  0  0  0  0  0  0  0  0  0
    4.8987   -4.8280   -0.2391 C   0  0  0  0  0  0  0  0  0  0  0  0
    5.5734   -5.9972   -0.2393 O   0  0  0  0  0  0  0  0  0  0  0  0
    5.4695   -3.7138   -0.8457 C   0  0  0  0  0  0  0  0  0  0  0  0
    4.7735   -2.5097   -0.8449 C   0  0  0  0  0  0  0  0  0  0  0  0
  1  2  2  0
  2  3  1  0
  3  4  1  0
  4  5  1  0
  5  6  2  3
  6  7  1  0
  6  8  1  0
  2  9  1  0
  9 10  1  0
 10 11  1  0
 11 12  2  0
 11 13  1  0
  9 14  1  0
 14 15  1  0
 15 16  2  0
 16 17  1  0
 17 18  2  0
 18 19  1  0
 18 20  1  0
 20 21  2  0
 21 15  1  0
M  END
$$$$
s_2708____16492918____14595632
     RDKit          3D

 24 24  0  0  0  0  0  0  0  0999 V2000
    3.1535    1.7376    6.8264 F   0  0  0  0  0  0  0  0  0  0  0  0
    3.5952    1.1103    5.7397 C   0  0  0  0  0  0  0  0  0  0  0  0
    2.8393    0.0878    5.1755 C   0  0  0  0  0  0  0  0  0  0  0  0
    3.3081   -0.5642    4.0396 C   0  0  0  0  0  0  0  0  0  0  0  0
    4.5251   -0.1865    3.4820 C   0  0  0  0  0  0  0  0  0  0  0  0
    5.2764    0.8367    4.0499 C   0  0  0  0  0  0  0  0  0  0  0  0
    4.8125    1.4924    5.1854 C   0  0  0  0  0  0  0  0  0  0  0  0
    5.0317   -0.9030    2.2411 C   0  0  0  0  0  0  0  0  0  0  0  0
    4.5250   -0.1865    1.0000 C   0  0  0  0  0  0  0  0  0  0  0  0
    3.0550   -0.1865    1.0000 N   0  0  0  0  0  0  0  0  0  0  0  0
    2.3700    1.0000    1.0000 C   0  0  0  0  0  0  0  0  0  0  0  0
    2.9700    2.0392    1.0000 O   0  0  0  0  0  0  0  0  0  0  0  0
    1.0000    1.0000    1.0000 N   0  0  0  0  0  0  0  0  0  0  0  0
    0.2650    2.2731    1.0000 C   0  0  0  0  0  0  0  0  0  0  0  0
    0.2272    2.8363   -0.4113 C   0  0  0  0  0  0  0  0  0  0  0  0
   -0.5328    4.1526   -0.4113 C   0  0  0  0  0  0  0  0  0  0  0  0
   -0.5706    4.7158   -1.8226 C   0  0  0  0  0  0  0  0  0  0  0  0
   -1.2356    5.8677   -1.8226 F   0  0  0  0  0  0  0  0  0  0  0  0
    0.6715    4.9211   -2.2515 F   0  0  0  0  0  0  0  0  0  0  0  0
   -1.9524    3.9181    0.0788 C   0  0  0  0  0  0  0  0  0  0  0  0
    5.0317   -0.9030   -0.2411 C   0  0  0  0  0  0  0  0  0  0  0  0
    4.5583   -0.2336   -1.4005 O   0  0  0  0  0  0  0  0  0  0  0  0
    6.5517   -0.9030   -0.2411 C   0  0  0  0  0  0  0  0  0  0  0  0
    4.5250   -2.3361   -0.2411 C   0  0  0  0  0  0  0  0  0  0  0  0
  1  2  1  0
  2  3  2  0
  3  4  1  0
  4  5  2  0
  5  6  1  0
  6  7  2  0
  7  2  1  0
  5  8  1  0
  8  9  1  0
  9 10  1  0
 10 11  1  0
 11 12  2  0
 11 13  1  0
 13 14  1  0
 14 15  1  0
 15 16  1  0
 16 17  1  0
 17 18  1  0
 17 19  1  0
 16 20  1  0
  9 21  1  0
 21 22  1  0
 21 23  1  0
 21 24  1  0
M  END
$$$$
s_1458____17513454____15565432
     RDKit          3D

 22 22  0  0  0  0  0  0  0  0999 V2000
    0.9450    1.0000    3.1737 O   0  0  0  0  0  0  0  0  0  0  0  0
    0.3450    1.0000    2.1345 C   0  0  0  0  0  0  0  0  0  0  0  0
    1.0000    1.0000    1.0000 O   0  0  0  0  0  0  0  0  0  0  0  0
    2.4200    1.0000    1.0000 C   0  0  0  0  0  0  0  0  0  0  0  0
    2.9267   -0.2411    0.2835 C   0  0  0  0  0  0  0  0  0  0  0  0
    4.4467   -0.2411    0.2835 C   0  0  0  0  0  0  0  0  0  0  0  0
    4.9533   -1.4821   -0.4331 C   0  0  0  0  0  0  0  0  0  0  0  0
    5.7007   -1.3629   -1.4900 C   0  0  0  0  0  0  0  0  0  0  0  0
    2.9267    2.2411    0.2835 C   0  0  0  0  0  0  0  0  0  0  0  0
   -1.1750    1.0000    2.1345 C   0  0  0  0  0  0  0  0  0  0  0  0
   -1.6650    1.0000    3.5204 N   0  0  0  0  0  0  0  0  0  0  0  0
   -2.4526    2.0275    3.9685 C   0  0  0  0  0  0  0  0  0  0  0  0
   -2.7425    2.9275    3.2296 O   0  0  0  0  0  0  0  0  0  0  0  0
   -2.9593    2.0275    5.4016 C   0  0  0  0  0  0  0  0  0  0  0  0
   -1.6817   -0.2411    1.4180 C   0  0  0  0  0  0  0  0  0  0  0  0
   -3.2017   -0.2411    1.4180 C   0  0  0  0  0  0  0  0  0  0  0  0
   -3.8861    0.3644    0.3692 C   0  0  0  0  0  0  0  0  0  0  0  0
   -5.2769    0.3662    0.3646 C   0  0  0  0  0  0  0  0  0  0  0  0
   -5.9666   -0.2391    1.4104 C   0  0  0  0  0  0  0  0  0  0  0  0
   -7.3164   -0.2393    1.4101 O   0  0  0  0  0  0  0  0  0  0  0  0
   -5.2870   -0.8457    2.4618 C   0  0  0  0  0  0  0  0  0  0  0  0
   -3.8962   -0.8449    2.4611 C   0  0  0  0  0  0  0  0  0  0  0  0
  1  2  2  0
  2  3  1  0
  3  4  1  0
  4  5  1  0
  5  6  1  0
  6  7  1  0
  7  8  2  0
  4  9  1  0
  2 10  1  0
 10 11  1  0
 11 12  1  0
 12 13  2  0
 12 14  1  0
 10 15  1  0
 15 16  1  0
 16 17  2  0
 17 18  1  0
 18 19  2  0
 19 20  1  0
 19 21  1  0
 21 22  2  0
 22 16  1  0
M  END
$$$$
s_22____4712096____16887748
     RDKit          3D

 27 27  0  0  0  0  0  0  0  0999 V2000
   -3.4717   -0.4113    1.9376 S   0  0  0  0  0  0  0  0  0  0  0  0
   -3.7548   -2.1719    1.6272 C   0  0  0  0  0  0  0  0  0  0  0  0
   -5.2495   -2.4439    1.5792 C   0  0  0  0  0  0  0  0  0  0  0  0
   -5.4576   -3.7376    1.3511 F   0  0  0  0  0  0  0  0  0  0  0  0
   -5.7994   -2.1047    2.7417 F   0  0  0  0  0  0  0  0  0  0  0  0
   -1.6617   -0.4113    1.9376 C   0  0  0  0  0  0  0  0  0  0  0  0
   -1.1550    1.0000    2.1865 C   0  0  0  0  0  0  0  0  0  0  0  0
    0.3150    1.0000    2.1865 N   0  0  0  0  0  0  0  0  0  0  0  0
    1.0000    1.0000    1.0000 C   0  0  0  0  0  0  0  0  0  0  0  0
    0.4000    1.0000   -0.0392 O   0  0  0  0  0  0  0  0  0  0  0  0
    2.5200    1.0000    1.0000 C   0  0  0  0  0  0  0  0  0  0  0  0
    3.0100    0.1091    2.0617 N   0  0  0  0  0  0  0  0  0  0  0  0
    3.7976    0.6082    3.0654 C   0  0  0  0  0  0  0  0  0  0  0  0
    4.0875    1.7726    3.0779 O   0  0  0  0  0  0  0  0  0  0  0  0
    4.3043   -0.3129    4.1632 C   0  0  0  0  0  0  0  0  0  0  0  0
    5.0932    0.4318    5.0794 O   0  0  0  0  0  0  0  0  0  0  0  0
    6.4493    0.4157    4.6584 C   0  0  0  0  0  0  0  0  0  0  0  0
    7.2937    1.2129    5.6392 C   0  0  0  0  0  0  0  0  0  0  0  0
    6.9479   -1.0194    4.6104 C   0  0  0  0  0  0  0  0  0  0  0  0
    3.0267    0.5099   -0.3466 C   0  0  0  0  0  0  0  0  0  0  0  0
    4.5467    0.5099   -0.3466 C   0  0  0  0  0  0  0  0  0  0  0  0
    5.2311   -0.6281    0.0675 C   0  0  0  0  0  0  0  0  0  0  0  0
    6.6219   -0.6330    0.0685 C   0  0  0  0  0  0  0  0  0  0  0  0
    7.3116    0.5021   -0.3460 C   0  0  0  0  0  0  0  0  0  0  0  0
    8.6614    0.5018   -0.3463 O   0  0  0  0  0  0  0  0  0  0  0  0
    6.6320    1.6429   -0.7608 C   0  0  0  0  0  0  0  0  0  0  0  0
    5.2412    1.6420   -0.7602 C   0  0  0  0  0  0  0  0  0  0  0  0
  1  2  1  0
  2  3  1  0
  3  4  1  0
  3  5  1  0
  1  6  1  0
  6  7  1  0
  7  8  1  0
  8  9  1  0
  9 10  2  0
  9 11  1  0
 11 12  1  0
 12 13  1  0
 13 14  2  0
 13 15  1  0
 15 16  1  0
 16 17  1  0
 17 18  1  0
 17 19  1  0
 11 20  1  0
 20 21  1  0
 21 22  2  0
 22 23  1  0
 23 24  2  0
 24 25  1  0
 24 26  1  0
 26 27  2  0
 27 21  1  0
M  END
$$$$
s_22____11401830____3192126
     RDKit          3D

 23 25  0  0  0  0  0  0  0  0999 V2000
    0.0511    3.2085   -0.5626 O   0  0  0  0  0  0  0  0  0  0  0  0
   -0.4491    2.9516    0.4975 C   0  0  0  0  0  0  0  0  0  0  0  0
   -1.0408    3.9436    1.2341 N   0  0  0  0  0  0  0  0  0  0  0  0
   -1.0631    5.3247    0.7252 C   0  0  0  0  0  0  0  0  0  0  0  0
   -2.4438    5.8792    0.5376 C   0  0  0  0  0  0  0  0  0  0  0  0
   -1.6331    6.2769    1.7360 C   0  0  0  0  0  0  0  0  0  0  0  0
   -3.2693    6.4228   -0.5972 C   0  0  0  0  0  0  0  0  0  0  0  0
   -3.8581    5.4214    0.3485 C   0  0  0  0  0  0  0  0  0  0  0  0
   -0.4261    1.5255    1.0230 C   0  0  0  0  0  0  0  0  0  0  0  0
    1.0000    1.0000    1.0000 C   0  0  0  0  0  0  0  0  0  0  0  0
    1.0222   -0.3792    1.5082 N   0  0  0  0  0  0  0  0  0  0  0  0
    1.4740   -1.3964    0.7094 C   0  0  0  0  0  0  0  0  0  0  0  0
    1.8516   -1.1615   -0.4052 O   0  0  0  0  0  0  0  0  0  0  0  0
    1.4970   -2.8224    1.2349 C   0  0  0  0  0  0  0  0  0  0  0  0
    1.8778    1.8778    1.8778 C   0  0  0  0  0  0  0  0  0  0  0  0
    2.7618    2.7809    1.2955 C   0  0  0  0  0  0  0  0  0  0  0  0
    2.8531    2.8901   -0.0473 O   0  0  0  0  0  0  0  0  0  0  0  0
    3.8659    3.6994   -0.6266 C   0  0  0  0  0  0  0  0  0  0  0  0
    3.7491    3.6504   -2.1413 C   0  0  0  0  0  0  0  0  0  0  0  0
    3.5653    3.5841    2.0987 C   0  0  0  0  0  0  0  0  0  0  0  0
    3.4842    3.4844    3.4843 C   0  0  0  0  0  0  0  0  0  0  0  0
    2.5997    2.5817    4.0662 C   0  0  0  0  0  0  0  0  0  0  0  0
    1.7963    1.7790    3.2628 C   0  0  0  0  0  0  0  0  0  0  0  0
  1  2  2  0
  2  3  1  0
  3  4  1  0
  4  5  1  0
  5  6  1  0
  6  4  1  0
  5  7  1  0
  7  8  1  0
  8  5  1  0
  2  9  1  0
  9 10  1  0
 10 11  1  0
 11 12  1  0
 12 13  2  0
 12 14  1  0
 10 15  1  0
 15 16  2  0
 16 17  1  0
 17 18  1  0
 18 19  1  0
 16 20  1  0
 20 21  2  0
 21 22  1  0
 22 23  2  0
 23 15  1  0
M  END
$$$$
s_276530____14277870____14278036
     RDKit          3D

 19 20  0  0  0  0  0  0  0  0999 V2000
    3.2844    3.7799    2.7958 O   0  0  0  0  0  0  0  0  0  0  0  0
    2.7521    2.6833    2.7324 C   0  0  0  0  0  0  0  0  0  0  0  0
    3.1800    1.7948    1.7374 N   0  0  0  0  0  0  0  0  0  0  0  0
    2.5741    0.4599    1.6108 C   0  0  0  0  0  0  0  0  0  0  0  0
    1.1325    0.4462    2.0963 C   0  0  0  0  0  0  0  0  0  0  0  0
    0.3145   -0.3283    1.6263 O   0  0  0  0  0  0  0  0  0  0  0  0
    0.7125    1.3291    3.0998 N   0  0  0  0  0  0  0  0  0  0  0  0
    1.6510    2.2870    3.7049 C   0  0  0  0  0  0  0  0  0  0  0  0
    0.8656    3.5231    4.1133 C   0  0  0  0  0  0  0  0  0  0  0  0
   -0.2063    3.1332    5.1187 C   0  0  0  0  0  0  0  0  0  0  0  0
    0.0787    3.1494    6.4806 C   0  0  0  0  0  0  0  0  0  0  0  0
    1.3018    3.5082    6.9262 O   0  0  0  0  0  0  0  0  0  0  0  0
   -0.9020    2.7924    7.4007 C   0  0  0  0  0  0  0  0  0  0  0  0
   -2.1678    2.4198    6.9588 C   0  0  0  0  0  0  0  0  0  0  0  0
   -2.4525    2.4043    5.5969 C   0  0  0  0  0  0  0  0  0  0  0  0
   -1.4718    2.7615    4.6772 C   0  0  0  0  0  0  0  0  0  0  0  0
    2.6210    0.0516    0.1471 C   0  0  0  0  0  0  0  0  0  0  0  0
    4.0661    0.0150   -0.3227 C   0  0  0  0  0  0  0  0  0  0  0  0
    4.1129   -0.3931   -1.7861 C   0  0  0  0  0  0  0  0  0  0  0  0
  1  2  2  0
  2  3  1  0
  3  4  1  0
  4  5  1  0
  5  6  2  0
  5  7  1  0
  7  8  1  0
  8  2  1  0
  8  9  1  0
  9 10  1  0
 10 11  2  0
 11 12  1  0
 11 13  1  0
 13 14  2  0
 14 15  1  0
 15 16  2  0
 16 10  1  0
  4 17  1  0
 17 18  1  0
 18 19  1  0
M  END
$$$$
s_22____6080378____17513450
     RDKit          3D

 23 24  0  0  0  0  0  0  0  0999 V2000
   -3.7712   -1.7997    3.3122 S   0  0  0  0  0  0  0  0  0  0  0  0
   -3.1190   -0.2351    2.6774 C   0  0  0  0  0  0  0  0  0  0  0  0
   -1.6949   -0.4106    2.1865 C   0  0  0  0  0  0  0  0  0  0  0  0
   -1.1547    1.0000    2.1865 C   0  0  0  0  0  0  0  0  0  0  0  0
    0.3150    1.0000    2.1865 N   0  0  0  0  0  0  0  0  0  0  0  0
    1.0000    1.0000    1.0000 C   0  0  0  0  0  0  0  0  0  0  0  0
    0.4000    1.0000   -0.0392 O   0  0  0  0  0  0  0  0  0  0  0  0
    2.5200    1.0000    1.0000 C   0  0  0  0  0  0  0  0  0  0  0  0
    3.0100    1.6930   -0.2002 N   0  0  0  0  0  0  0  0  0  0  0  0
    3.2383    3.0434   -0.1663 C   0  0  0  0  0  0  0  0  0  0  0  0
    3.0383    3.6605    0.8432 O   0  0  0  0  0  0  0  0  0  0  0  0
    3.7450    3.7599   -1.4074 C   0  0  0  0  0  0  0  0  0  0  0  0
    3.0267   -0.4331    1.0000 C   0  0  0  0  0  0  0  0  0  0  0  0
    4.5467   -0.4331    1.0000 C   0  0  0  0  0  0  0  0  0  0  0  0
    5.2311   -0.4331    2.2110 C   0  0  0  0  0  0  0  0  0  0  0  0
    6.6219   -0.4338    2.2159 C   0  0  0  0  0  0  0  0  0  0  0  0
    7.3116   -0.4351    1.0075 C   0  0  0  0  0  0  0  0  0  0  0  0
    8.7316   -0.4355    1.0077 O   0  0  0  0  0  0  0  0  0  0  0  0
    6.6320   -0.4347   -0.2063 C   0  0  0  0  0  0  0  0  0  0  0  0
    5.2412   -0.4344   -0.2053 C   0  0  0  0  0  0  0  0  0  0  0  0
   -1.6801    1.5480    3.5021 C   0  0  0  0  0  0  0  0  0  0  0  0
   -2.9515    0.7723    3.8045 C   0  0  0  0  0  0  0  0  0  0  0  0
   -5.4245   -1.2426    3.7940 C   0  0  0  0  0  0  0  0  0  0  0  0
  1  2  1  0
  2  3  1  0
  3  4  1  0
  4  5  1  0
  5  6  1  0
  6  7  2  0
  6  8  1  0
  8  9  1  0
  9 10  1  0
 10 11  2  0
 10 12  1  0
  8 13  1  0
 13 14  1  0
 14 15  2  0
 15 16  1  0
 16 17  2  0
 17 18  1  0
 17 19  1  0
 19 20  2  0
 20 14  1  0
  4 21  1  0
 21 22  1  0
 22  2  1  0
  1 23  1  0
M  END
$$$$
s_188690b____7326520____17513482
     RDKit          3D

 22 22  0  0  0  0  0  0  0  0999 V2000
   -1.8633   -1.0035    3.2343 O   0  0  0  0  0  0  0  0  0  0  0  0
   -1.6617   -0.4331    2.1865 C   0  0  0  0  0  0  0  0  0  0  0  0
   -1.8700   -1.0223    1.1039 O   0  0  0  0  0  0  0  0  0  0  0  0
   -1.1550    1.0000    2.1865 C   0  0  0  0  0  0  0  0  0  0  0  0
    0.3150    1.0000    2.1865 N   0  0  0  0  0  0  0  0  0  0  0  0
    1.0000    1.0000    1.0000 C   0  0  0  0  0  0  0  0  0  0  0  0
    0.4000    1.0000   -0.0392 O   0  0  0  0  0  0  0  0  0  0  0  0
    2.5200    1.0000    1.0000 C   0  0  0  0  0  0  0  0  0  0  0  0
    3.0100    1.6930   -0.2002 N   0  0  0  0  0  0  0  0  0  0  0  0
    3.2383    3.0434   -0.1663 C   0  0  0  0  0  0  0  0  0  0  0  0
    3.0383    3.6605    0.8432 O   0  0  0  0  0  0  0  0  0  0  0  0
    3.7450    3.7599   -1.4074 C   0  0  0  0  0  0  0  0  0  0  0  0
    3.0267   -0.4331    1.0000 C   0  0  0  0  0  0  0  0  0  0  0  0
    4.5467   -0.4331    1.0000 C   0  0  0  0  0  0  0  0  0  0  0  0
    5.2311   -0.4331    2.2110 C   0  0  0  0  0  0  0  0  0  0  0  0
    6.6219   -0.4338    2.2159 C   0  0  0  0  0  0  0  0  0  0  0  0
    7.3116   -0.4351    1.0075 C   0  0  0  0  0  0  0  0  0  0  0  0
    8.7316   -0.4355    1.0077 O   0  0  0  0  0  0  0  0  0  0  0  0
    6.6320   -0.4347   -0.2063 C   0  0  0  0  0  0  0  0  0  0  0  0
    5.2412   -0.4344   -0.2053 C   0  0  0  0  0  0  0  0  0  0  0  0
    1.0500    1.0000    3.4595 C   0  0  0  0  0  0  0  0  0  0  0  0
    1.3033    2.4331    3.8983 C   0  0  0  0  0  0  0  0  0  0  0  0
  1  2  1  0
  2  3  2  0
  2  4  1  0
  4  5  1  0
  5  6  1  0
  6  7  2  0
  6  8  1  0
  8  9  1  0
  9 10  1  0
 10 11  2  0
 10 12  1  0
  8 13  1  0
 13 14  1  0
 14 15  2  0
 15 16  1  0
 16 17  2  0
 17 18  1  0
 17 19  1  0
 19 20  2  0
 20 14  1  0
  5 21  1  0
 21 22  1  0
M  CHG  1   1  -1
M  END
$$$$
s_2230a____7912836____666216
     RDKit          3D

 22 22  0  0  0  0  0  0  0  0999 V2000
    2.5142    2.7694    1.3883 O   0  0  0  0  0  0  0  0  0  0  0  0
    1.8776    1.8776    1.8776 C   0  0  0  0  0  0  0  0  0  0  0  0
    1.9417    1.6504    3.2271 N   0  0  0  0  0  0  0  0  0  0  0  0
    2.7904    2.4991    4.0758 C   0  0  0  0  0  0  0  0  0  0  0  0
    3.8351    1.6393    4.7685 C   0  0  0  0  0  0  0  0  0  0  0  0
    4.9593    2.0413    4.8886 O   0  0  0  0  0  0  0  0  0  0  0  0
    3.4557    0.2702    5.3090 C   0  0  0  0  0  0  0  0  0  0  0  0
    1.9306    3.1918    5.1204 C   0  0  0  0  0  0  0  0  0  0  0  0
    0.8858    4.0518    4.4276 C   0  0  0  0  0  0  0  0  0  0  0  0
   -0.3522    3.5057    4.1049 C   0  0  0  0  0  0  0  0  0  0  0  0
   -1.3051    4.2959    3.4702 C   0  0  0  0  0  0  0  0  0  0  0  0
   -1.0172    5.6218    3.1641 C   0  0  0  0  0  0  0  0  0  0  0  0
    0.2227    6.1567    3.4916 C   0  0  0  0  0  0  0  0  0  0  0  0
    1.1842    5.3767    4.1258 C   0  0  0  0  0  0  0  0  0  0  0  0
    1.0000    1.0000    1.0000 C   0  0  0  0  0  0  0  0  0  0  0  0
    0.7171    1.6971   -0.2629 N   0  0  0  0  0  0  0  0  0  0  0  0
   -0.1316    0.8484   -1.1116 C   0  0  0  0  0  0  0  0  0  0  0  0
    0.5892   -0.4575   -1.4041 C   0  0  0  0  0  0  0  0  0  0  0  0
    1.1535   -1.4798   -1.6331 C   0  0  0  0  0  0  0  0  0  0  0  0
    0.0200    2.9600    0.0200 C   0  0  0  0  0  0  0  0  0  0  0  0
   -0.3822    3.6208   -1.2884 C   0  0  0  0  0  0  0  0  0  0  0  0
   -1.1030    4.9267   -0.9959 C   0  0  0  0  0  0  0  0  0  0  0  0
  1  2  2  0
  2  3  1  0
  3  4  1  0
  4  5  1  0
  5  6  2  0
  5  7  1  0
  4  8  1  0
  8  9  1  0
  9 10  2  0
 10 11  1  0
 11 12  2  0
 12 13  1  0
 13 14  2  0
 14  9  1  0
  2 15  1  0
 15 16  1  0
 16 17  1  0
 17 18  1  0
 18 19  3  0
 16 20  1  0
 20 21  1  0
 21 22  1  0
M  CHG  1  16   1
M  END
$$$$
s_22____12427814____9736368
     RDKit          3D

 23 23  0  0  0  0  0  0  0  0999 V2000
   -6.1874   -0.4321   -0.5665 Cl  0  0  0  0  0  0  0  0  0  0  0  0
   -5.2957   -0.4327    0.9741 C   0  0  0  0  0  0  0  0  0  0  0  0
   -5.9961   -0.4333    2.1758 C   0  0  0  0  0  0  0  0  0  0  0  0
   -7.7761   -0.4336    2.1683 Cl  0  0  0  0  0  0  0  0  0  0  0  0
   -5.3189   -0.4328    3.3909 C   0  0  0  0  0  0  0  0  0  0  0  0
   -3.9275   -0.4328    3.3910 C   0  0  0  0  0  0  0  0  0  0  0  0
   -3.2319   -0.4331    2.1865 C   0  0  0  0  0  0  0  0  0  0  0  0
   -3.9051   -0.4331    0.9696 C   0  0  0  0  0  0  0  0  0  0  0  0
   -1.7117   -0.4331    2.1865 C   0  0  0  0  0  0  0  0  0  0  0  0
   -1.2050    1.0000    2.1865 C   0  0  0  0  0  0  0  0  0  0  0  0
   -1.6950    1.6930    3.3867 N   0  0  0  0  0  0  0  0  0  0  0  0
   -1.9233    3.0434    3.3528 C   0  0  0  0  0  0  0  0  0  0  0  0
   -2.3233    3.6091    4.3326 O   0  0  0  0  0  0  0  0  0  0  0  0
    0.3150    1.0000    2.1865 C   0  0  0  0  0  0  0  0  0  0  0  0
    0.9150    1.0000    3.2257 O   0  0  0  0  0  0  0  0  0  0  0  0
    1.0000    1.0000    1.0000 N   0  0  0  0  0  0  0  0  0  0  0  0
    2.4700    1.0000    1.0000 C   0  0  0  0  0  0  0  0  0  0  0  0
    2.9767   -0.4331    1.0000 C   0  0  0  0  0  0  0  0  0  0  0  0
    4.4967   -0.4331    1.0000 C   0  0  0  0  0  0  0  0  0  0  0  0
    4.9700    0.2363   -0.1594 O   0  0  0  0  0  0  0  0  0  0  0  0
    5.0033   -1.8661    1.0000 C   0  0  0  0  0  0  0  0  0  0  0  0
    6.3333   -1.8661    1.0000 F   0  0  0  0  0  0  0  0  0  0  0  0
    4.5600   -2.4931    2.0859 F   0  0  0  0  0  0  0  0  0  0  0  0
  1  2  1  0
  2  3  2  0
  3  4  1  0
  3  5  1  0
  5  6  2  0
  6  7  1  0
  7  8  2  0
  8  2  1  0
  7  9  1  0
  9 10  1  0
 10 11  1  0
 11 12  1  0
 12 13  2  0
 10 14  1  0
 14 15  2  0
 14 16  1  0
 16 17  1  0
 17 18  1  0
 18 19  1  0
 19 20  1  0
 19 21  1  0
 21 22  1  0
 21 23  1  0
M  END
$$$$
s_22____57813____107332
     RDKit          3D

 21 21  0  0  0  0  0  0  0  0999 V2000
    1.6287   -2.8076   -4.4731 Cl  0  0  0  0  0  0  0  0  0  0  0  0
    2.0403   -1.5646   -3.2675 C   0  0  0  0  0  0  0  0  0  0  0  0
    2.8044   -1.9046   -2.1567 C   0  0  0  0  0  0  0  0  0  0  0  0
    3.1278   -0.9363   -1.2116 C   0  0  0  0  0  0  0  0  0  0  0  0
    2.6787    0.3673   -1.3944 C   0  0  0  0  0  0  0  0  0  0  0  0
    1.9143    0.7077   -2.5049 C   0  0  0  0  0  0  0  0  0  0  0  0
    1.5908   -0.2609   -3.4501 C   0  0  0  0  0  0  0  0  0  0  0  0
    3.0267    1.4309   -0.3667 C   0  0  0  0  0  0  0  0  0  0  0  0
    4.4855    1.6046   -0.3161 N   0  0  0  0  0  0  0  0  0  0  0  0
    5.0404    2.8242   -0.6018 C   0  0  0  0  0  0  0  0  0  0  0  0
    4.3356    3.7506   -0.8934 O   0  0  0  0  0  0  0  0  0  0  0  0
    6.5489    3.0038   -0.5495 C   0  0  0  0  0  0  0  0  0  0  0  0
    2.5200    1.0000    1.0000 C   0  0  0  0  0  0  0  0  0  0  0  0
    1.0000    1.0000    1.0000 C   0  0  0  0  0  0  0  0  0  0  0  0
    0.4000    1.0000   -0.0392 O   0  0  0  0  0  0  0  0  0  0  0  0
    0.3150    1.0000    2.1865 N   0  0  0  0  0  0  0  0  0  0  0  0
   -1.1550    1.0000    2.1865 C   0  0  0  0  0  0  0  0  0  0  0  0
   -1.6617    1.0000    3.6195 C   0  0  0  0  0  0  0  0  0  0  0  0
   -3.1317    1.0000    3.6195 N   0  0  0  0  0  0  0  0  0  0  0  0
   -3.6217    1.0000    5.0055 C   0  0  0  0  0  0  0  0  0  0  0  0
   -3.6217    2.2002    2.9266 C   0  0  0  0  0  0  0  0  0  0  0  0
  1  2  1  0
  2  3  2  0
  3  4  1  0
  4  5  2  0
  5  6  1  0
  6  7  2  0
  7  2  1  0
  5  8  1  0
  8  9  1  0
  9 10  1  0
 10 11  2  0
 10 12  1  0
  8 13  1  0
 13 14  1  0
 14 15  2  0
 14 16  1  0
 16 17  1  0
 17 18  1  0
 18 19  1  0
 19 20  1  0
 19 21  1  0
M  CHG  1  19   1
M  END
$$$$
s_240690b____17025736____11954850
     RDKit          3D

 19 19  0  0  0  0  0  0  0  0999 V2000
    0.4000   -0.0392    1.0000 O   0  0  0  0  0  0  0  0  0  0  0  0
    1.0000    1.0000    1.0000 C   0  0  0  0  0  0  0  0  0  0  0  0
    2.3700    1.0000    1.0000 N   0  0  0  0  0  0  0  0  0  0  0  0
    3.1050   -0.2731    1.0000 C   0  0  0  0  0  0  0  0  0  0  0  0
    3.9789   -0.3536    2.2411 C   0  0  0  0  0  0  0  0  0  0  0  0
    4.9016    0.7257    2.2411 O   0  0  0  0  0  0  0  0  0  0  0  0
    3.9789   -0.3536   -0.2411 C   0  0  0  0  0  0  0  0  0  0  0  0
    3.1050   -0.2731   -1.4822 C   0  0  0  0  0  0  0  0  0  0  0  0
    2.8226    0.9691   -2.0410 C   0  0  0  0  0  0  0  0  0  0  0  0
    2.0241    1.0476   -3.1770 C   0  0  0  0  0  0  0  0  0  0  0  0
    1.5177   -0.1192   -3.7409 C   0  0  0  0  0  0  0  0  0  0  0  0
    0.7420   -0.0476   -4.8432 O   0  0  0  0  0  0  0  0  0  0  0  0
    1.7968   -1.3640   -3.1858 C   0  0  0  0  0  0  0  0  0  0  0  0
    2.5962   -1.4366   -2.0500 C   0  0  0  0  0  0  0  0  0  0  0  0
    0.2400    2.3164    1.0000 C   0  0  0  0  0  0  0  0  0  0  0  0
   -1.2052    2.0477    1.0000 N   0  0  0  0  0  0  0  0  0  0  0  0
   -1.9402    3.3208    1.0000 C   0  0  0  0  0  0  0  0  0  0  0  0
   -3.4347    3.0431    1.0000 C   0  0  0  0  0  0  0  0  0  0  0  0
   -1.5730    4.1179    2.2411 C   0  0  0  0  0  0  0  0  0  0  0  0
  1  2  2  0
  2  3  1  0
  3  4  1  0
  4  5  1  0
  5  6  1  0
  4  7  1  0
  7  8  1  0
  8  9  2  0
  9 10  1  0
 10 11  2  0
 11 12  1  0
 11 13  1  0
 13 14  2  0
 14  8  1  0
  2 15  1  0
 15 16  1  0
 16 17  1  0
 17 18  1  0
 17 19  1  0
M  CHG  1  16   1
M  END
$$$$
s_1458____17513454____13763166
     RDKit          3D

 22 23  0  0  0  0  0  0  0  0999 V2000
    2.9100    2.0392    1.0000 O   0  0  0  0  0  0  0  0  0  0  0  0
    2.3100    1.0000    1.0000 C   0  0  0  0  0  0  0  0  0  0  0  0
    1.0000    1.0000    1.0000 O   0  0  0  0  0  0  0  0  0  0  0  0
    0.2900    2.2298    1.0000 C   0  0  0  0  0  0  0  0  0  0  0  0
    0.0367    2.6685   -0.4331 C   0  0  0  0  0  0  0  0  0  0  0  0
   -0.7232    3.9846   -0.4331 C   0  0  0  0  0  0  0  0  0  0  0  0
   -0.0343    5.1355    0.2436 C   0  0  0  0  0  0  0  0  0  0  0  0
   -1.2113    4.4736    0.9009 C   0  0  0  0  0  0  0  0  0  0  0  0
   -1.5851    4.3393   -1.6346 C   0  0  0  0  0  0  0  0  0  0  0  0
    3.0700   -0.3164    1.0000 C   0  0  0  0  0  0  0  0  0  0  0  0
    4.5152   -0.0477    1.0000 N   0  0  0  0  0  0  0  0  0  0  0  0
    5.2971   -0.5058    2.0275 C   0  0  0  0  0  0  0  0  0  0  0  0
    4.8022   -1.1263    2.9275 O   0  0  0  0  0  0  0  0  0  0  0  0
    6.7915   -0.2281    2.0275 C   0  0  0  0  0  0  0  0  0  0  0  0
    2.7028   -1.1134   -0.2411 C   0  0  0  0  0  0  0  0  0  0  0  0
    3.4628   -2.4298   -0.2411 C   0  0  0  0  0  0  0  0  0  0  0  0
    2.8968   -3.5469    0.3644 C   0  0  0  0  0  0  0  0  0  0  0  0
    3.5882   -4.7537    0.3662 C   0  0  0  0  0  0  0  0  0  0  0  0
    4.8387   -4.8280   -0.2391 C   0  0  0  0  0  0  0  0  0  0  0  0
    5.5134   -5.9972   -0.2393 O   0  0  0  0  0  0  0  0  0  0  0  0
    5.4095   -3.7138   -0.8457 C   0  0  0  0  0  0  0  0  0  0  0  0
    4.7135   -2.5097   -0.8449 C   0  0  0  0  0  0  0  0  0  0  0  0
  1  2  2  0
  2  3  1  0
  3  4  1  0
  4  5  1  0
  5  6  1  0
  6  7  1  0
  7  8  1  0
  8  6  1  0
  6  9  1  0
  2 10  1  0
 10 11  1  0
 11 12  1  0
 12 13  2  0
 12 14  1  0
 10 15  1  0
 15 16  1  0
 16 17  2  0
 17 18  1  0
 18 19  2  0
 19 20  1  0
 19 21  1  0
 21 22  2  0
 22 16  1  0
M  END
$$$$
s_22____58834____17513450
     RDKit          3D

 23 24  0  0  0  0  0  0  0  0999 V2000
   -4.1707   -0.4331    0.8010 S   0  0  0  0  0  0  0  0  0  0  0  0
   -3.1836   -0.4331    2.1865 C   0  0  0  0  0  0  0  0  0  0  0  0
   -4.0050   -0.4374    3.2705 C   0  0  0  0  0  0  0  0  0  0  0  0
   -5.3848   -0.4283    2.9248 C   0  0  0  0  0  0  0  0  0  0  0  0
   -5.6775   -0.4223    1.5940 C   0  0  0  0  0  0  0  0  0  0  0  0
   -1.6617   -0.4331    2.1865 C   0  0  0  0  0  0  0  0  0  0  0  0
   -1.1550    1.0000    2.1865 C   0  0  0  0  0  0  0  0  0  0  0  0
    0.3150    1.0000    2.1865 N   0  0  0  0  0  0  0  0  0  0  0  0
    1.0000    1.0000    1.0000 C   0  0  0  0  0  0  0  0  0  0  0  0
    0.4000    1.0000   -0.0392 O   0  0  0  0  0  0  0  0  0  0  0  0
    2.5200    1.0000    1.0000 C   0  0  0  0  0  0  0  0  0  0  0  0
    3.0100    1.6930   -0.2002 N   0  0  0  0  0  0  0  0  0  0  0  0
    3.2383    3.0434   -0.1663 C   0  0  0  0  0  0  0  0  0  0  0  0
    3.0383    3.6605    0.8432 O   0  0  0  0  0  0  0  0  0  0  0  0
    3.7450    3.7599   -1.4074 C   0  0  0  0  0  0  0  0  0  0  0  0
    3.0267   -0.4331    1.0000 C   0  0  0  0  0  0  0  0  0  0  0  0
    4.5467   -0.4331    1.0000 C   0  0  0  0  0  0  0  0  0  0  0  0
    5.2311   -0.4331    2.2110 C   0  0  0  0  0  0  0  0  0  0  0  0
    6.6219   -0.4338    2.2159 C   0  0  0  0  0  0  0  0  0  0  0  0
    7.3116   -0.4351    1.0075 C   0  0  0  0  0  0  0  0  0  0  0  0
    8.7316   -0.4355    1.0077 O   0  0  0  0  0  0  0  0  0  0  0  0
    6.6320   -0.4347   -0.2063 C   0  0  0  0  0  0  0  0  0  0  0  0
    5.2412   -0.4344   -0.2053 C   0  0  0  0  0  0  0  0  0  0  0  0
  1  2  1  0
  2  3  2  0
  3  4  1  0
  4  5  2  0
  5  1  1  0
  2  6  1  0
  6  7  1  0
  7  8  1  0
  8  9  1  0
  9 10  2  0
  9 11  1  0
 11 12  1  0
 12 13  1  0
 13 14  2  0
 13 15  1  0
 11 16  1  0
 16 17  1  0
 17 18  2  0
 18 19  1  0
 19 20  2  0
 20 21  1  0
 20 22  1  0
 22 23  2  0
 23 17  1  0
M  END
$$$$
s_22____10638314____17513450
     RDKit          3D

 23 24  0  0  0  0  0  0  0  0999 V2000
    0.4000    1.0000   -0.0392 O   0  0  0  0  0  0  0  0  0  0  0  0
    1.0000    1.0000    1.0000 C   0  0  0  0  0  0  0  0  0  0  0  0
    0.3150    1.0000    2.1865 N   0  0  0  0  0  0  0  0  0  0  0  0
   -1.1550    1.0000    2.1865 C   0  0  0  0  0  0  0  0  0  0  0  0
   -1.6617   -0.4331    2.1865 C   0  0  0  0  0  0  0  0  0  0  0  0
   -3.1820   -0.4331    2.1865 C   0  0  0  0  0  0  0  0  0  0  0  0
   -3.9455   -0.4331    1.1174 N   0  0  0  0  0  0  0  0  0  0  0  0
   -5.1981   -0.4357    1.5175 N   0  0  0  0  0  0  0  0  0  0  0  0
   -5.2177   -0.4355    2.8813 C   0  0  0  0  0  0  0  0  0  0  0  0
   -3.9710   -0.4339    3.2970 N   0  0  0  0  0  0  0  0  0  0  0  0
    2.5200    1.0000    1.0000 C   0  0  0  0  0  0  0  0  0  0  0  0
    3.0100    1.6930   -0.2002 N   0  0  0  0  0  0  0  0  0  0  0  0
    3.2383    3.0434   -0.1663 C   0  0  0  0  0  0  0  0  0  0  0  0
    3.0383    3.6605    0.8432 O   0  0  0  0  0  0  0  0  0  0  0  0
    3.7450    3.7599   -1.4074 C   0  0  0  0  0  0  0  0  0  0  0  0
    3.0267   -0.4331    1.0000 C   0  0  0  0  0  0  0  0  0  0  0  0
    4.5467   -0.4331    1.0000 C   0  0  0  0  0  0  0  0  0  0  0  0
    5.2311   -0.4331    2.2110 C   0  0  0  0  0  0  0  0  0  0  0  0
    6.6219   -0.4338    2.2159 C   0  0  0  0  0  0  0  0  0  0  0  0
    7.3116   -0.4351    1.0075 C   0  0  0  0  0  0  0  0  0  0  0  0
    8.7316   -0.4355    1.0077 O   0  0  0  0  0  0  0  0  0  0  0  0
    6.6320   -0.4347   -0.2063 C   0  0  0  0  0  0  0  0  0  0  0  0
    5.2412   -0.4344   -0.2053 C   0  0  0  0  0  0  0  0  0  0  0  0
  1  2  2  0
  2  3  1  0
  3  4  1  0
  4  5  1  0
  5  6  1  0
  6  7  2  0
  7  8  1  0
  8  9  1  0
  9 10  2  0
 10  6  1  0
  2 11  1  0
 11 12  1  0
 12 13  1  0
 13 14  2  0
 13 15  1  0
 11 16  1  0
 16 17  1  0
 17 18  2  0
 18 19  1  0
 19 20  2  0
 20 21  1  0
 20 22  1  0
 22 23  2  0
 23 17  1  0
M  END
$$$$
s_11a____6389022____220031
     RDKit          3D

 18 18  0  0  0  0  0  0  0  0999 V2000
   -0.0099    4.4888   -0.1108 S   0  0  0  0  0  0  0  0  0  0  0  0
   -0.3197    2.8169   -0.0612 C   0  0  0  0  0  0  0  0  0  0  0  0
   -1.6387    2.6565    0.2294 C   0  0  0  0  0  0  0  0  0  0  0  0
   -2.3243    3.8899    0.4081 C   0  0  0  0  0  0  0  0  0  0  0  0
   -1.5830    5.0239    0.2611 C   0  0  0  0  0  0  0  0  0  0  0  0
    0.7075    1.7208   -0.3059 C   0  0  0  0  0  0  0  0  0  0  0  0
    0.1774    0.7625   -1.2864 N   0  0  0  0  0  0  0  0  0  0  0  0
    0.8400    0.5533   -2.4671 C   0  0  0  0  0  0  0  0  0  0  0  0
    1.8532    1.1524   -2.7009 O   0  0  0  0  0  0  0  0  0  0  0  0
    0.2918   -0.4376   -3.4811 C   0  0  0  0  0  0  0  0  0  0  0  0
    1.0000    1.0000    1.0000 C   0  0  0  0  0  0  0  0  0  0  0  0
    1.8776    1.8776    1.8776 C   0  0  0  0  0  0  0  0  0  0  0  0
    1.9688    3.0524    1.6507 O   0  0  0  0  0  0  0  0  0  0  0  0
    2.5644    1.3273    2.9275 N   0  0  0  0  0  0  0  0  0  0  0  0
    3.4131    2.1760    3.7762 C   0  0  0  0  0  0  0  0  0  0  0  0
    2.5455    2.9163    4.7811 C   0  0  0  0  0  0  0  0  0  0  0  0
    1.8977    2.0371    5.5402 F   0  0  0  0  0  0  0  0  0  0  0  0
    3.3134    3.6842    5.5489 F   0  0  0  0  0  0  0  0  0  0  0  0
  1  2  1  0
  2  3  2  0
  3  4  1  0
  4  5  2  0
  5  1  1  0
  2  6  1  0
  6  7  1  0
  7  8  1  0
  8  9  2  0
  8 10  1  0
  6 11  1  0
 11 12  1  0
 12 13  2  0
 12 14  1  0
 14 15  1  0
 15 16  1  0
 16 17  1  0
 16 18  1  0
M  END
$$$$
s_22____13135904____9736332
     RDKit          3D

 20 20  0  0  0  0  0  0  0  0999 V2000
    6.3333   -1.8226    1.4977 F   0  0  0  0  0  0  0  0  0  0  0  0
    5.0033   -1.8226    1.4977 C   0  0  0  0  0  0  0  0  0  0  0  0
    4.5600   -2.2515    2.6760 F   0  0  0  0  0  0  0  0  0  0  0  0
    4.4967   -0.4113    1.2488 C   0  0  0  0  0  0  0  0  0  0  0  0
    2.9767   -0.4113    1.2488 C   0  0  0  0  0  0  0  0  0  0  0  0
    2.4700    1.0000    1.0000 C   0  0  0  0  0  0  0  0  0  0  0  0
    1.0000    1.0000    1.0000 N   0  0  0  0  0  0  0  0  0  0  0  0
    0.3150    1.0000    2.1865 C   0  0  0  0  0  0  0  0  0  0  0  0
    0.9150    1.0000    3.2257 O   0  0  0  0  0  0  0  0  0  0  0  0
   -1.2050    1.0000    2.1865 C   0  0  0  0  0  0  0  0  0  0  0  0
   -1.6950    0.1091    1.1248 N   0  0  0  0  0  0  0  0  0  0  0  0
   -2.4826    0.6082    0.1211 C   0  0  0  0  0  0  0  0  0  0  0  0
   -2.7725    1.7726    0.1086 O   0  0  0  0  0  0  0  0  0  0  0  0
   -2.9893   -0.3129   -0.9767 C   0  0  0  0  0  0  0  0  0  0  0  0
   -1.7117    0.5099    3.5331 C   0  0  0  0  0  0  0  0  0  0  0  0
   -3.2332    0.5099    3.5331 C   0  0  0  0  0  0  0  0  0  0  0  0
   -4.0411   -0.5205    3.1581 N   0  0  0  0  0  0  0  0  0  0  0  0
   -5.3025   -0.1695    3.2898 C   0  0  0  0  0  0  0  0  0  0  0  0
   -5.3236    1.1139    3.7632 N   0  0  0  0  0  0  0  0  0  0  0  0
   -4.0363    1.5485    3.9121 C   0  0  0  0  0  0  0  0  0  0  0  0
  1  2  1  0
  2  3  1  0
  2  4  1  0
  4  5  1  0
  5  6  1  0
  6  7  1  0
  7  8  1  0
  8  9  2  0
  8 10  1  0
 10 11  1  0
 11 12  1  0
 12 13  2  0
 12 14  1  0
 10 15  1  0
 15 16  1  0
 16 17  1  0
 17 18  2  0
 18 19  1  0
 19 20  1  0
 16 20  2  0
M  END
$$$$
s_2708____6465958____909110
     RDKit          3D

 20 20  0  0  0  0  0  0  0  0999 V2000
    0.4000   -0.0392    1.0000 O   0  0  0  0  0  0  0  0  0  0  0  0
    1.0000    1.0000    1.0000 C   0  0  0  0  0  0  0  0  0  0  0  0
    2.3700    1.0000    1.0000 N   0  0  0  0  0  0  0  0  0  0  0  0
    3.1050   -0.2731    1.0000 C   0  0  0  0  0  0  0  0  0  0  0  0
    4.2359   -0.2052   -0.0133 C   0  0  0  0  0  0  0  0  0  0  0  0
    3.7113    0.1457   -1.2853 O   0  0  0  0  0  0  0  0  0  0  0  0
    3.3593   -1.0335   -1.9939 C   0  0  0  0  0  0  0  0  0  0  0  0
    3.6795   -0.5264    2.3842 C   0  0  0  0  0  0  0  0  0  0  0  0
    4.2783   -1.9228    2.4366 C   0  0  0  0  0  0  0  0  0  0  0  0
    5.6544   -2.0780    2.5680 C   0  0  0  0  0  0  0  0  0  0  0  0
    6.1982   -3.3575    2.6147 C   0  0  0  0  0  0  0  0  0  0  0  0
    5.3674   -4.4699    2.5315 C   0  0  0  0  0  0  0  0  0  0  0  0
    3.9942   -4.3028    2.4009 C   0  0  0  0  0  0  0  0  0  0  0  0
    3.4382   -3.0286    2.3524 C   0  0  0  0  0  0  0  0  0  0  0  0
    0.3150    2.1865    1.0000 N   0  0  0  0  0  0  0  0  0  0  0  0
   -1.1550    2.1865    1.0000 C   0  0  0  0  0  0  0  0  0  0  0  0
   -1.6617    1.9376    2.4113 C   0  0  0  0  0  0  0  0  0  0  0  0
   -3.1817    1.9376    2.4113 C   0  0  0  0  0  0  0  0  0  0  0  0
   -3.6883    1.6888    3.8226 C   0  0  0  0  0  0  0  0  0  0  0  0
   -3.6883    3.2842    1.9212 C   0  0  0  0  0  0  0  0  0  0  0  0
  1  2  2  0
  2  3  1  0
  3  4  1  0
  4  5  1  0
  5  6  1  0
  6  7  1  0
  4  8  1  0
  8  9  1  0
  9 10  2  0
 10 11  1  0
 11 12  2  0
 12 13  1  0
 13 14  2  0
 14  9  1  0
  2 15  1  0
 15 16  1  0
 16 17  1  0
 17 18  1  0
 18 19  1  0
 18 20  1  0
M  END
$$$$
s_527a____6078728____17513452
     RDKit          3D

 23 24  0  0  0  0  0  0  0  0999 V2000
    0.4000    1.0000   -0.0392 O   0  0  0  0  0  0  0  0  0  0  0  0
    1.0000    1.0000    1.0000 C   0  0  0  0  0  0  0  0  0  0  0  0
    0.3150    1.0000    2.1865 N   0  0  0  0  0  0  0  0  0  0  0  0
   -1.1550    1.0000    2.1865 C   0  0  0  0  0  0  0  0  0  0  0  0
   -1.6617   -0.4331    2.1865 C   0  0  0  0  0  0  0  0  0  0  0  0
   -3.1306   -0.4331    2.1865 N   0  0  0  0  0  0  0  0  0  0  0  0
   -3.5698    0.2651    0.9771 C   0  0  0  0  0  0  0  0  0  0  0  0
   -4.9090    0.8510    1.3834 C   0  0  0  0  0  0  0  0  0  0  0  0
   -4.9171    0.9947    2.6919 C   0  0  0  0  0  0  0  0  0  0  0  0
   -3.5783    0.5075    3.2187 C   0  0  0  0  0  0  0  0  0  0  0  0
    2.5200    1.0000    1.0000 C   0  0  0  0  0  0  0  0  0  0  0  0
    3.0100    1.6930   -0.2002 N   0  0  0  0  0  0  0  0  0  0  0  0
    3.2383    3.0434   -0.1663 C   0  0  0  0  0  0  0  0  0  0  0  0
    3.0383    3.6605    0.8432 O   0  0  0  0  0  0  0  0  0  0  0  0
    3.7450    3.7599   -1.4074 C   0  0  0  0  0  0  0  0  0  0  0  0
    3.0267   -0.4331    1.0000 C   0  0  0  0  0  0  0  0  0  0  0  0
    4.5467   -0.4331    1.0000 C   0  0  0  0  0  0  0  0  0  0  0  0
    5.2311   -0.4331    2.2110 C   0  0  0  0  0  0  0  0  0  0  0  0
    6.6219   -0.4338    2.2159 C   0  0  0  0  0  0  0  0  0  0  0  0
    7.3116   -0.4351    1.0075 C   0  0  0  0  0  0  0  0  0  0  0  0
    8.7316   -0.4355    1.0077 O   0  0  0  0  0  0  0  0  0  0  0  0
    6.6320   -0.4347   -0.2063 C   0  0  0  0  0  0  0  0  0  0  0  0
    5.2412   -0.4344   -0.2053 C   0  0  0  0  0  0  0  0  0  0  0  0
  1  2  2  0
  2  3  1  0
  3  4  1  0
  4  5  1  0
  5  6  1  0
  6  7  1  0
  7  8  1  0
  8  9  2  0
  9 10  1  0
 10  6  1  0
  2 11  1  0
 11 12  1  0
 12 13  1  0
 13 14  2  0
 13 15  1  0
 11 16  1  0
 16 17  1  0
 17 18  2  0
 18 19  1  0
 19 20  2  0
 20 21  1  0
 20 22  1  0
 22 23  2  0
 23 17  1  0
M  CHG  1   6   1
M  END
$$$$
s_22____10390876____107332
     RDKit          3D

 22 22  0  0  0  0  0  0  0  0999 V2000
    2.2958   -3.1092   -4.3208 Cl  0  0  0  0  0  0  0  0  0  0  0  0
    2.5117   -1.7775   -3.1598 C   0  0  0  0  0  0  0  0  0  0  0  0
    3.2657   -1.9786   -2.0090 C   0  0  0  0  0  0  0  0  0  0  0  0
    3.4364   -0.9406   -1.0986 C   0  0  0  0  0  0  0  0  0  0  0  0
    2.8459    0.2921   -1.3561 C   0  0  0  0  0  0  0  0  0  0  0  0
    2.0917    0.4935   -2.5066 C   0  0  0  0  0  0  0  0  0  0  0  0
    1.9209   -0.5447   -3.4172 C   0  0  0  0  0  0  0  0  0  0  0  0
    3.0267    1.4309   -0.3667 C   0  0  0  0  0  0  0  0  0  0  0  0
    4.4521    1.7778   -0.2739 N   0  0  0  0  0  0  0  0  0  0  0  0
    4.8720    3.0415   -0.5957 C   0  0  0  0  0  0  0  0  0  0  0  0
    4.0761    3.8653   -0.9534 O   0  0  0  0  0  0  0  0  0  0  0  0
    6.3460    3.4001   -0.4997 C   0  0  0  0  0  0  0  0  0  0  0  0
    2.5200    1.0000    1.0000 C   0  0  0  0  0  0  0  0  0  0  0  0
    1.0000    1.0000    1.0000 C   0  0  0  0  0  0  0  0  0  0  0  0
    0.4000    1.0000   -0.0392 O   0  0  0  0  0  0  0  0  0  0  0  0
    0.3150    1.0000    2.1865 N   0  0  0  0  0  0  0  0  0  0  0  0
   -1.1550    1.0000    2.1865 C   0  0  0  0  0  0  0  0  0  0  0  0
   -1.6617    2.2411    2.9030 C   0  0  0  0  0  0  0  0  0  0  0  0
   -0.8819    3.0310    3.3590 O   0  0  0  0  0  0  0  0  0  0  0  0
   -3.0086    2.4579    3.0282 N   0  0  0  0  0  0  0  0  0  0  0  0
   -1.6617   -0.2411    2.9030 C   0  0  0  0  0  0  0  0  0  0  0  0
   -1.1550   -0.2411    4.3361 C   0  0  0  0  0  0  0  0  0  0  0  0
  1  2  1  0
  2  3  2  0
  3  4  1  0
  4  5  2  0
  5  6  1  0
  6  7  2  0
  7  2  1  0
  5  8  1  0
  8  9  1  0
  9 10  1  0
 10 11  2  0
 10 12  1  0
  8 13  1  0
 13 14  1  0
 14 15  2  0
 14 16  1  0
 16 17  1  0
 17 18  1  0
 18 19  2  0
 18 20  1  0
 17 21  1  0
 21 22  1  0
M  END
$$$$
s_271949____10838282____14933200
     RDKit          3D

 21 21  0  0  0  0  0  0  0  0999 V2000
    5.0823    0.3566   -0.9036 F   0  0  0  0  0  0  0  0  0  0  0  0
    3.8402    0.1514   -1.3325 C   0  0  0  0  0  0  0  0  0  0  0  0
    3.8733   -0.3414   -2.5673 F   0  0  0  0  0  0  0  0  0  0  0  0
    3.1428   -0.8363   -0.4113 C   0  0  0  0  0  0  0  0  0  0  0  0
    3.1050   -0.2731    1.0000 C   0  0  0  0  0  0  0  0  0  0  0  0
    2.3700    1.0000    1.0000 N   0  0  0  0  0  0  0  0  0  0  0  0
    1.0000    1.0000    1.0000 C   0  0  0  0  0  0  0  0  0  0  0  0
    0.4000   -0.0392    1.0000 O   0  0  0  0  0  0  0  0  0  0  0  0
    0.2400    2.3164    1.0000 C   0  0  0  0  0  0  0  0  0  0  0  0
    0.2478    3.0137    1.9766 O   0  0  0  0  0  0  0  0  0  0  0  0
   -0.4539    2.7067   -0.1149 N   0  0  0  0  0  0  0  0  0  0  0  0
   -1.1889    3.9797   -0.1149 C   0  0  0  0  0  0  0  0  0  0  0  0
   -0.3674    5.0391   -0.8315 C   0  0  0  0  0  0  0  0  0  0  0  0
   -0.5219    5.2133   -2.2028 C   0  0  0  0  0  0  0  0  0  0  0  0
    0.2270    6.1819   -2.8626 C   0  0  0  0  0  0  0  0  0  0  0  0
    1.1221    6.9655   -2.1410 C   0  0  0  0  0  0  0  0  0  0  0  0
    1.8513    7.9064   -2.7774 O   0  0  0  0  0  0  0  0  0  0  0  0
    1.2807    6.7951   -0.7695 C   0  0  0  0  0  0  0  0  0  0  0  0
    0.5289    5.8253   -0.1148 C   0  0  0  0  0  0  0  0  0  0  0  0
   -0.4635    1.8525   -1.3112 C   0  0  0  0  0  0  0  0  0  0  0  0
    3.9028   -2.1526   -0.4113 C   0  0  0  0  0  0  0  0  0  0  0  0
  1  2  1  0
  2  3  1  0
  2  4  1  0
  4  5  1  0
  5  6  1  0
  6  7  1  0
  7  8  2  0
  7  9  1  0
  9 10  2  0
  9 11  1  0
 11 12  1  0
 12 13  1  0
 13 14  2  0
 14 15  1  0
 15 16  2  0
 16 17  1  0
 16 18  1  0
 18 19  2  0
 19 13  1  0
 11 20  1  0
  4 21  1  0
M  END
$$$$
s_22____11406706____17513450
     RDKit          3D

 22 24  0  0  0  0  0  0  0  0999 V2000
   -1.0213    2.0766    0.4260 O   0  0  0  0  0  0  0  0  0  0  0  0
    0.1224    1.8776    0.1224 C   0  0  0  0  0  0  0  0  0  0  0  0
    0.6373    2.4413   -1.0152 N   0  0  0  0  0  0  0  0  0  0  0  0
   -0.2106    3.2891   -1.8630 C   0  0  0  0  0  0  0  0  0  0  0  0
   -0.3308    2.7292   -3.2614 C   0  0  0  0  0  0  0  0  0  0  0  0
   -0.7466    3.8995   -4.1211 C   0  0  0  0  0  0  0  0  0  0  0  0
   -0.2819    5.1223   -3.3796 C   0  0  0  0  0  0  0  0  0  0  0  0
    0.4024    4.6535   -2.1102 C   0  0  0  0  0  0  0  0  0  0  0  0
   -1.7221    4.9822   -3.7641 C   0  0  0  0  0  0  0  0  0  0  0  0
    1.0000    1.0000    1.0000 C   0  0  0  0  0  0  0  0  0  0  0  0
    1.8487    0.1513    0.1513 N   0  0  0  0  0  0  0  0  0  0  0  0
    1.7598   -1.2129    0.2402 C   0  0  0  0  0  0  0  0  0  0  0  0
    0.9891   -1.7150    1.0109 O   0  0  0  0  0  0  0  0  0  0  0  0
    2.6374   -2.0905   -0.6374 C   0  0  0  0  0  0  0  0  0  0  0  0
    1.8776    1.8776    1.8776 C   0  0  0  0  0  0  0  0  0  0  0  0
    1.0000    2.7552    2.7552 C   0  0  0  0  0  0  0  0  0  0  0  0
    0.6049    2.2940    4.0066 C   0  0  0  0  0  0  0  0  0  0  0  0
   -0.1975    3.0939    4.8134 C   0  0  0  0  0  0  0  0  0  0  0  0
   -0.5947    4.3470    4.3576 C   0  0  0  0  0  0  0  0  0  0  0  0
   -1.3737    5.1264    5.1372 O   0  0  0  0  0  0  0  0  0  0  0  0
   -0.2026    4.8128    3.1068 C   0  0  0  0  0  0  0  0  0  0  0  0
    0.6001    4.0090    2.3044 C   0  0  0  0  0  0  0  0  0  0  0  0
  1  2  2  0
  2  3  1  0
  3  4  1  0
  4  5  1  0
  5  6  1  0
  6  7  1  0
  7  8  1  0
  8  4  1  0
  7  9  1  0
  9  6  1  0
  2 10  1  0
 10 11  1  0
 11 12  1  0
 12 13  2  0
 12 14  1  0
 10 15  1  0
 15 16  1  0
 16 17  2  0
 17 18  1  0
 18 19  2  0
 19 20  1  0
 19 21  1  0
 21 22  2  0
 22 16  1  0
M  END
$$$$
s_527a____10430816____220034
     RDKit          3D

 21 21  0  0  0  0  0  0  0  0999 V2000
   -0.7699    3.2599   -2.0040 S   0  0  0  0  0  0  0  0  0  0  0  0
   -1.2694    2.0213   -0.9504 C   0  0  0  0  0  0  0  0  0  0  0  0
   -1.7320    0.9976   -1.7170 C   0  0  0  0  0  0  0  0  0  0  0  0
   -1.6697    1.2728   -3.1112 C   0  0  0  0  0  0  0  0  0  0  0  0
   -1.1642    2.4867   -3.4688 C   0  0  0  0  0  0  0  0  0  0  0  0
   -1.1970    2.0718    0.5691 C   0  0  0  0  0  0  0  0  0  0  0  0
   -2.0494    3.1622    1.0643 N   0  0  0  0  0  0  0  0  0  0  0  0
   -3.0899    2.8872    1.9120 C   0  0  0  0  0  0  0  0  0  0  0  0
   -3.3055    1.7562    2.2502 O   0  0  0  0  0  0  0  0  0  0  0  0
   -3.9714    4.0147    2.4241 C   0  0  0  0  0  0  0  0  0  0  0  0
    0.2400    2.3164    1.0000 C   0  0  0  0  0  0  0  0  0  0  0  0
    1.0000    1.0000    1.0000 C   0  0  0  0  0  0  0  0  0  0  0  0
    0.4000   -0.0392    1.0000 O   0  0  0  0  0  0  0  0  0  0  0  0
    2.3700    1.0000    1.0000 N   0  0  0  0  0  0  0  0  0  0  0  0
    3.1050   -0.2731    1.0000 C   0  0  0  0  0  0  0  0  0  0  0  0
    4.5994    0.0047    1.0000 C   0  0  0  0  0  0  0  0  0  0  0  0
    5.3594   -1.3117    1.0000 C   0  0  0  0  0  0  0  0  0  0  0  0
    5.0043   -2.0825    2.2002 N   0  0  0  0  0  0  0  0  0  0  0  0
    5.7393   -3.3556    2.2002 C   0  0  0  0  0  0  0  0  0  0  0  0
    5.3594   -1.3117    3.4005 C   0  0  0  0  0  0  0  0  0  0  0  0
    4.9666    0.8017   -0.2411 C   0  0  0  0  0  0  0  0  0  0  0  0
  1  2  1  0
  2  3  2  0
  3  4  1  0
  4  5  2  0
  5  1  1  0
  2  6  1  0
  6  7  1  0
  7  8  1  0
  8  9  2  0
  8 10  1  0
  6 11  1  0
 11 12  1  0
 12 13  2  0
 12 14  1  0
 14 15  1  0
 15 16  1  0
 16 17  1  0
 17 18  1  0
 18 19  1  0
 18 20  1  0
 16 21  1  0
M  CHG  1  18   1
M  END
$$$$
s_22____15424994____17064022
     RDKit          3D

 25 26  0  0  0  0  0  0  0  0999 V2000
    2.2201   -0.4934   -0.8115 O   0  0  0  0  0  0  0  0  0  0  0  0
    2.9767   -0.0133   -0.0133 C   0  0  0  0  0  0  0  0  0  0  0  0
    4.2971   -0.3786   -0.0154 N   0  0  0  0  0  0  0  0  0  0  0  0
    5.1766    0.0343    1.0903 C   0  0  0  0  0  0  0  0  0  0  0  0
    5.8991   -1.1542    1.6756 C   0  0  0  0  0  0  0  0  0  0  0  0
    7.0847   -0.2255    1.8034 C   0  0  0  0  0  0  0  0  0  0  0  0
    8.1410   -0.1245    2.5874 C   0  0  0  0  0  0  0  0  0  0  0  0
    6.5257    0.5150    0.6118 C   0  0  0  0  0  0  0  0  0  0  0  0
    4.8355   -1.1828   -1.1219 C   0  0  0  0  0  0  0  0  0  0  0  0
    2.4700    1.0000    1.0000 C   0  0  0  0  0  0  0  0  0  0  0  0
    1.0000    1.0000    1.0000 N   0  0  0  0  0  0  0  0  0  0  0  0
    0.3150    1.0000    2.1865 C   0  0  0  0  0  0  0  0  0  0  0  0
    0.9150    1.0000    3.2257 O   0  0  0  0  0  0  0  0  0  0  0  0
   -1.2050    1.0000    2.1865 C   0  0  0  0  0  0  0  0  0  0  0  0
   -1.7117   -0.2411    1.4699 C   0  0  0  0  0  0  0  0  0  0  0  0
   -3.2317   -0.2411    1.4699 C   0  0  0  0  0  0  0  0  0  0  0  0
   -1.7117    1.0000    3.6195 C   0  0  0  0  0  0  0  0  0  0  0  0
    2.9767    2.3842    0.6291 C   0  0  0  0  0  0  0  0  0  0  0  0
    3.1456    3.2166    1.8897 C   0  0  0  0  0  0  0  0  0  0  0  0
    4.3633    3.2014    2.5618 C   0  0  0  0  0  0  0  0  0  0  0  0
    4.5227    3.9620    3.7153 C   0  0  0  0  0  0  0  0  0  0  0  0
    3.4605    4.7297    4.1823 C   0  0  0  0  0  0  0  0  0  0  0  0
    3.6107    5.4691    5.3016 O   0  0  0  0  0  0  0  0  0  0  0  0
    2.2404    4.7481    3.5142 C   0  0  0  0  0  0  0  0  0  0  0  0
    2.0867    3.9860    2.3610 C   0  0  0  0  0  0  0  0  0  0  0  0
  1  2  2  0
  2  3  1  0
  3  4  1  0
  4  5  1  0
  5  6  1  0
  6  7  2  0
  6  8  1  0
  8  4  1  0
  3  9  1  0
  2 10  1  0
 10 11  1  0
 11 12  1  0
 12 13  2  0
 12 14  1  0
 14 15  1  0
 15 16  1  0
 14 17  1  0
 10 18  1  0
 18 19  1  0
 19 20  2  0
 20 21  1  0
 21 22  2  0
 22 23  1  0
 22 24  1  0
 24 25  2  0
 25 19  1  0
M  END
$$$$
s_22____2391588____3192126
     RDKit          3D

 25 25  0  0  0  0  0  0  0  0999 V2000
   -1.9669    0.1034   -2.0258 F   0  0  0  0  0  0  0  0  0  0  0  0
   -0.8625   -0.4438   -1.5260 C   0  0  0  0  0  0  0  0  0  0  0  0
   -0.6201   -1.5964   -2.1439 F   0  0  0  0  0  0  0  0  0  0  0  0
    0.3103    0.5000   -1.7358 C   0  0  0  0  0  0  0  0  0  0  0  0
    1.5310   -0.1048   -1.1834 N   0  0  0  0  0  0  0  0  0  0  0  0
    1.8776    0.1224    0.1224 C   0  0  0  0  0  0  0  0  0  0  0  0
    2.8740   -0.3713    0.5734 O   0  0  0  0  0  0  0  0  0  0  0  0
    1.0000    1.0000    1.0000 C   0  0  0  0  0  0  0  0  0  0  0  0
    1.8776    1.8776    1.8776 C   0  0  0  0  0  0  0  0  0  0  0  0
    1.0674    2.4534    2.9606 N   0  0  0  0  0  0  0  0  0  0  0  0
    1.3859    2.1924    4.2673 C   0  0  0  0  0  0  0  0  0  0  0  0
    2.3262    1.4938    4.5277 O   0  0  0  0  0  0  0  0  0  0  0  0
    0.5482    2.7878    5.3872 C   0  0  0  0  0  0  0  0  0  0  0  0
    2.4731    2.9978    1.0396 C   0  0  0  0  0  0  0  0  0  0  0  0
    3.8214    3.3181    1.1641 C   0  0  0  0  0  0  0  0  0  0  0  0
    4.6149    2.6448    2.0245 O   0  0  0  0  0  0  0  0  0  0  0  0
    6.0253    2.7953    1.9559 C   0  0  0  0  0  0  0  0  0  0  0  0
    6.6791    1.9361    3.0259 C   0  0  0  0  0  0  0  0  0  0  0  0
    4.3664    4.3434    0.3975 C   0  0  0  0  0  0  0  0  0  0  0  0
    3.5630    5.0478   -0.4940 C   0  0  0  0  0  0  0  0  0  0  0  0
    2.2150    4.7267   -0.6186 C   0  0  0  0  0  0  0  0  0  0  0  0
    1.6704    3.7014    0.1478 C   0  0  0  0  0  0  0  0  0  0  0  0
    2.3797   -0.9535   -2.0321 C   0  0  0  0  0  0  0  0  0  0  0  0
    3.4243   -0.0937   -2.7248 C   0  0  0  0  0  0  0  0  0  0  0  0
    4.3019   -0.9713   -3.6024 C   0  0  0  0  0  0  0  0  0  0  0  0
  1  2  1  0
  2  3  1  0
  2  4  1  0
  4  5  1  0
  5  6  1  0
  6  7  2  0
  6  8  1  0
  8  9  1  0
  9 10  1  0
 10 11  1  0
 11 12  2  0
 11 13  1  0
  9 14  1  0
 14 15  2  0
 15 16  1  0
 16 17  1  0
 17 18  1  0
 15 19  1  0
 19 20  2  0
 20 21  1  0
 21 22  2  0
 22 14  1  0
  5 23  1  0
 23 24  1  0
 24 25  1  0
M  END
$$$$
s_2430a____12915848____12527170
     RDKit          3D

 24 24  0  0  0  0  0  0  0  0999 V2000
   -1.8992    3.3270    3.4696 F   0  0  0  0  0  0  0  0  0  0  0  0
   -2.6639    2.2411    3.5400 C   0  0  0  0  0  0  0  0  0  0  0  0
   -3.5281    2.2411    2.5291 F   0  0  0  0  0  0  0  0  0  0  0  0
   -1.7900    1.0000    3.4595 C   0  0  0  0  0  0  0  0  0  0  0  0
   -1.0550    1.0000    2.1865 N   0  0  0  0  0  0  0  0  0  0  0  0
    0.3150    1.0000    2.1865 C   0  0  0  0  0  0  0  0  0  0  0  0
    0.9150    1.0000    3.2257 O   0  0  0  0  0  0  0  0  0  0  0  0
    1.0000    1.0000    1.0000 N   0  0  0  0  0  0  0  0  0  0  0  0
    2.4700    1.0000    1.0000 C   0  0  0  0  0  0  0  0  0  0  0  0
    2.9767   -0.0133   -0.0133 C   0  0  0  0  0  0  0  0  0  0  0  0
    2.2201   -0.4934   -0.8115 O   0  0  0  0  0  0  0  0  0  0  0  0
    4.2971   -0.3786   -0.0154 N   0  0  0  0  0  0  0  0  0  0  0  0
    4.8891   -0.9885   -1.2147 C   0  0  0  0  0  0  0  0  0  0  0  0
    5.4520    0.1015   -2.1122 C   0  0  0  0  0  0  0  0  0  0  0  0
    5.1219   -0.1605    1.1817 C   0  0  0  0  0  0  0  0  0  0  0  0
    5.1725   -1.4393    2.0019 C   0  0  0  0  0  0  0  0  0  0  0  0
    2.9767    2.3842    0.6291 C   0  0  0  0  0  0  0  0  0  0  0  0
    3.1456    3.2167    1.8900 C   0  0  0  0  0  0  0  0  0  0  0  0
    2.0829    3.9831    2.3572 C   0  0  0  0  0  0  0  0  0  0  0  0
    2.2420    4.7440    3.5108 C   0  0  0  0  0  0  0  0  0  0  0  0
    3.4564    4.7338    4.1888 C   0  0  0  0  0  0  0  0  0  0  0  0
    4.5109    3.9641    3.7131 C   0  0  0  0  0  0  0  0  0  0  0  0
    4.3646    3.1994    2.5603 C   0  0  0  0  0  0  0  0  0  0  0  0
   -2.6639   -0.2411    3.5400 C   0  0  0  0  0  0  0  0  0  0  0  0
  1  2  1  0
  2  3  1  0
  2  4  1  0
  4  5  1  0
  5  6  1  0
  6  7  2  0
  6  8  1  0
  8  9  1  0
  9 10  1  0
 10 11  2  0
 10 12  1  0
 12 13  1  0
 13 14  1  0
 12 15  1  0
 15 16  1  0
  9 17  1  0
 17 18  1  0
 18 19  2  0
 19 20  1  0
 20 21  2  0
 21 22  1  0
 22 23  2  0
 23 18  1  0
  4 24  1  0
M  END
$$$$
s_188690b____8331286____5367188
     RDKit          3D

 21 21  0  0  0  0  0  0  0  0999 V2000
   -2.2339    2.7969   -1.1407 S   0  0  0  0  0  0  0  0  0  0  0  0
   -2.0503    1.7744    0.2062 C   0  0  0  0  0  0  0  0  0  0  0  0
   -2.7966    0.6610   -0.0241 C   0  0  0  0  0  0  0  0  0  0  0  0
   -3.4851    0.6987   -1.2682 C   0  0  0  0  0  0  0  0  0  0  0  0
   -3.2987    1.8116   -2.0321 C   0  0  0  0  0  0  0  0  0  0  0  0
   -1.1970    2.0718    1.4309 C   0  0  0  0  0  0  0  0  0  0  0  0
   -1.7151    3.2679    2.1104 N   0  0  0  0  0  0  0  0  0  0  0  0
   -2.1450    3.1860    3.4087 C   0  0  0  0  0  0  0  0  0  0  0  0
   -2.0986    2.1379    3.9911 O   0  0  0  0  0  0  0  0  0  0  0  0
   -2.6807    4.4228    4.1113 C   0  0  0  0  0  0  0  0  0  0  0  0
    0.2400    2.3164    1.0000 C   0  0  0  0  0  0  0  0  0  0  0  0
    1.0000    1.0000    1.0000 C   0  0  0  0  0  0  0  0  0  0  0  0
    0.4000   -0.0392    1.0000 O   0  0  0  0  0  0  0  0  0  0  0  0
    2.3700    1.0000    1.0000 N   0  0  0  0  0  0  0  0  0  0  0  0
    3.1050   -0.2731    1.0000 C   0  0  0  0  0  0  0  0  0  0  0  0
    4.5947    0.0020    1.1249 C   0  0  0  0  0  0  0  0  0  0  0  0
    5.3666   -1.2942    0.9389 C   0  0  0  0  0  0  0  0  0  0  0  0
    4.8158   -2.3516    1.8817 C   0  0  0  0  0  0  0  0  0  0  0  0
    4.6931   -3.4945    1.5037 O   0  0  0  0  0  0  0  0  0  0  0  0
    4.4897   -2.0406    3.0477 O   0  0  0  0  0  0  0  0  0  0  0  0
    5.0167    1.0003    0.0593 C   0  0  0  0  0  0  0  0  0  0  0  0
  1  2  1  0
  2  3  2  0
  3  4  1  0
  4  5  2  0
  5  1  1  0
  2  6  1  0
  6  7  1  0
  7  8  1  0
  8  9  2  0
  8 10  1  0
  6 11  1  0
 11 12  1  0
 12 13  2  0
 12 14  1  0
 14 15  1  0
 15 16  1  0
 16 17  1  0
 17 18  1  0
 18 19  1  0
 18 20  2  0
 16 21  1  0
M  CHG  1  19  -1
M  END
$$$$
s_22____7290494____16717358
     RDKit          3D

 27 27  0  0  0  0  0  0  0  0999 V2000
    5.2955    3.4039    1.7109 S   0  0  0  0  0  0  0  0  0  0  0  0
    4.0516    4.4277    0.8860 C   0  0  0  0  0  0  0  0  0  0  0  0
    3.1918    5.1204    1.9306 C   0  0  0  0  0  0  0  0  0  0  0  0
    2.4991    4.0758    2.7904 C   0  0  0  0  0  0  0  0  0  0  0  0
    1.6504    3.2271    1.9417 N   0  0  0  0  0  0  0  0  0  0  0  0
    1.8776    1.8776    1.8776 C   0  0  0  0  0  0  0  0  0  0  0  0
    2.7694    1.3883    2.5142 O   0  0  0  0  0  0  0  0  0  0  0  0
    1.0000    1.0000    1.0000 C   0  0  0  0  0  0  0  0  0  0  0  0
    0.7171    1.6971   -0.2629 N   0  0  0  0  0  0  0  0  0  0  0  0
    1.1013    1.1397   -1.4540 C   0  0  0  0  0  0  0  0  0  0  0  0
    1.6688    0.0825   -1.4663 O   0  0  0  0  0  0  0  0  0  0  0  0
    0.8088    1.8605   -2.7598 C   0  0  0  0  0  0  0  0  0  0  0  0
    1.3173    1.0624   -3.8847 N   0  0  0  0  0  0  0  0  0  0  0  0
    0.5937   -0.0036   -4.3506 C   0  0  0  0  0  0  0  0  0  0  0  0
   -0.4552   -0.2856   -3.8405 O   0  0  0  0  0  0  0  0  0  0  0  0
    1.1195   -0.8289   -5.5137 C   0  0  0  0  0  0  0  0  0  0  0  0
   -0.3059    0.7075    1.7208 C   0  0  0  0  0  0  0  0  0  0  0  0
   -1.1835   -0.1701    0.8432 C   0  0  0  0  0  0  0  0  0  0  0  0
   -1.0842   -1.5540    0.9425 C   0  0  0  0  0  0  0  0  0  0  0  0
   -1.8857   -2.3610    0.1420 C   0  0  0  0  0  0  0  0  0  0  0  0
   -2.7781   -1.7726   -0.7486 C   0  0  0  0  0  0  0  0  0  0  0  0
   -3.5577   -2.5520   -1.5276 O   0  0  0  0  0  0  0  0  0  0  0  0
   -2.8811   -0.3891   -0.8520 C   0  0  0  0  0  0  0  0  0  0  0  0
   -2.0774    0.4131   -0.0489 C   0  0  0  0  0  0  0  0  0  0  0  0
    1.6393    4.7685    3.8351 C   0  0  0  0  0  0  0  0  0  0  0  0
    2.4591    5.5883    4.6549 O   0  0  0  0  0  0  0  0  0  0  0  0
    6.3346    4.7179    2.3962 C   0  0  0  0  0  0  0  0  0  0  0  0
  1  2  1  0
  2  3  1  0
  3  4  1  0
  4  5  1  0
  5  6  1  0
  6  7  2  0
  6  8  1  0
  8  9  1  0
  9 10  1  0
 10 11  2  0
 10 12  1  0
 12 13  1  0
 13 14  1  0
 14 15  2  0
 14 16  1  0
  8 17  1  0
 17 18  1  0
 18 19  2  0
 19 20  1  0
 20 21  2  0
 21 22  1  0
 21 23  1  0
 23 24  2  0
 24 18  1  0
  4 25  1  0
 25 26  1  0
  1 27  1  0
M  END
$$$$
s_11a____9785156____217445
     RDKit          3D

 23 23  0  0  0  0  0  0  0  0999 V2000
   -4.0542   -1.1921   -2.8076 Cl  0  0  0  0  0  0  0  0  0  0  0  0
   -3.2159   -0.2328   -1.5646 C   0  0  0  0  0  0  0  0  0  0  0  0
   -2.6360    0.9843   -1.9046 C   0  0  0  0  0  0  0  0  0  0  0  0
   -1.9792    1.7369   -0.9363 C   0  0  0  0  0  0  0  0  0  0  0  0
   -1.9129    1.2566    0.3673 C   0  0  0  0  0  0  0  0  0  0  0  0
   -2.4924    0.0394    0.7077 C   0  0  0  0  0  0  0  0  0  0  0  0
   -3.1493   -0.7134   -0.2609 C   0  0  0  0  0  0  0  0  0  0  0  0
   -1.1970    2.0718    1.4309 C   0  0  0  0  0  0  0  0  0  0  0  0
   -1.8825    3.3605    1.6046 N   0  0  0  0  0  0  0  0  0  0  0  0
   -2.4074    3.6982    2.8242 C   0  0  0  0  0  0  0  0  0  0  0  0
   -2.3076    2.9420    3.7506 O   0  0  0  0  0  0  0  0  0  0  0  0
   -3.1163    5.0307    3.0038 C   0  0  0  0  0  0  0  0  0  0  0  0
    0.2400    2.3164    1.0000 C   0  0  0  0  0  0  0  0  0  0  0  0
    1.0000    1.0000    1.0000 C   0  0  0  0  0  0  0  0  0  0  0  0
    0.4000   -0.0392    1.0000 O   0  0  0  0  0  0  0  0  0  0  0  0
    2.3700    1.0000    1.0000 N   0  0  0  0  0  0  0  0  0  0  0  0
    3.1050   -0.2731    1.0000 C   0  0  0  0  0  0  0  0  0  0  0  0
    4.5994    0.0047    1.0000 C   0  0  0  0  0  0  0  0  0  0  0  0
    5.3594   -1.3117    1.0000 C   0  0  0  0  0  0  0  0  0  0  0  0
    6.8538   -1.0339    1.0000 C   0  0  0  0  0  0  0  0  0  0  0  0
    7.1751   -0.3365   -0.0859 F   0  0  0  0  0  0  0  0  0  0  0  0
    7.1751   -0.3365    2.0859 F   0  0  0  0  0  0  0  0  0  0  0  0
    7.5188   -2.1857    1.0000 F   0  0  0  0  0  0  0  0  0  0  0  0
  1  2  1  0
  2  3  2  0
  3  4  1  0
  4  5  2  0
  5  6  1  0
  6  7  2  0
  7  2  1  0
  5  8  1  0
  8  9  1  0
  9 10  1  0
 10 11  2  0
 10 12  1  0
  8 13  1  0
 13 14  1  0
 14 15  2  0
 14 16  1  0
 16 17  1  0
 17 18  1  0
 18 19  1  0
 19 20  1  0
 20 21  1  0
 20 22  1  0
 20 23  1  0
M  END
$$$$
s_527a____7207670____220034
     RDKit          3D

 21 21  0  0  0  0  0  0  0  0999 V2000
    1.7301    0.2657   -2.6418 S   0  0  0  0  0  0  0  0  0  0  0  0
    2.8456    0.2901   -1.3578 C   0  0  0  0  0  0  0  0  0  0  0  0
    3.5319   -0.8836   -1.3934 C   0  0  0  0  0  0  0  0  0  0  0  0
    3.1125   -1.7431   -2.4464 C   0  0  0  0  0  0  0  0  0  0  0  0
    2.1148   -1.2777   -3.2494 C   0  0  0  0  0  0  0  0  0  0  0  0
    3.0267    1.4309   -0.3667 C   0  0  0  0  0  0  0  0  0  0  0  0
    4.4521    1.7778   -0.2739 N   0  0  0  0  0  0  0  0  0  0  0  0
    4.8720    3.0415   -0.5957 C   0  0  0  0  0  0  0  0  0  0  0  0
    4.0761    3.8653   -0.9534 O   0  0  0  0  0  0  0  0  0  0  0  0
    6.3460    3.4001   -0.4997 C   0  0  0  0  0  0  0  0  0  0  0  0
    2.5200    1.0000    1.0000 C   0  0  0  0  0  0  0  0  0  0  0  0
    1.0000    1.0000    1.0000 C   0  0  0  0  0  0  0  0  0  0  0  0
    0.4000    1.0000   -0.0392 O   0  0  0  0  0  0  0  0  0  0  0  0
    0.3150    1.0000    2.1865 N   0  0  0  0  0  0  0  0  0  0  0  0
   -1.1550    1.0000    2.1865 C   0  0  0  0  0  0  0  0  0  0  0  0
   -1.6617    2.2411    2.9030 C   0  0  0  0  0  0  0  0  0  0  0  0
   -3.1817    2.2411    2.9030 C   0  0  0  0  0  0  0  0  0  0  0  0
   -1.1550    2.2411    4.3361 C   0  0  0  0  0  0  0  0  0  0  0  0
   -1.6617   -0.2411    2.9030 C   0  0  0  0  0  0  0  0  0  0  0  0
   -1.1550   -1.4821    2.1865 C   0  0  0  0  0  0  0  0  0  0  0  0
   -1.6283   -2.6416    2.8558 O   0  0  0  0  0  0  0  0  0  0  0  0
  1  2  1  0
  2  3  2  0
  3  4  1  0
  4  5  2  0
  5  1  1  0
  2  6  1  0
  6  7  1  0
  7  8  1  0
  8  9  2  0
  8 10  1  0
  6 11  1  0
 11 12  1  0
 12 13  2  0
 12 14  1  0
 14 15  1  0
 15 16  1  0
 16 17  1  0
 16 18  1  0
 15 19  1  0
 19 20  1  0
 20 21  1  0
M  END
$$$$
s_276750____14462982____14609688
     RDKit          3D

 23 23  0  0  0  0  0  0  0  0999 V2000
   -4.0542   -1.1921   -2.8076 Cl  0  0  0  0  0  0  0  0  0  0  0  0
   -3.2159   -0.2328   -1.5646 C   0  0  0  0  0  0  0  0  0  0  0  0
   -2.6360    0.9843   -1.9046 C   0  0  0  0  0  0  0  0  0  0  0  0
   -1.9792    1.7369   -0.9363 C   0  0  0  0  0  0  0  0  0  0  0  0
   -1.9129    1.2566    0.3673 C   0  0  0  0  0  0  0  0  0  0  0  0
   -2.4924    0.0394    0.7077 C   0  0  0  0  0  0  0  0  0  0  0  0
   -3.1493   -0.7134   -0.2609 C   0  0  0  0  0  0  0  0  0  0  0  0
   -1.1970    2.0718    1.4309 C   0  0  0  0  0  0  0  0  0  0  0  0
   -1.8825    3.3605    1.6046 N   0  0  0  0  0  0  0  0  0  0  0  0
   -2.4074    3.6982    2.8242 C   0  0  0  0  0  0  0  0  0  0  0  0
   -2.3076    2.9420    3.7506 O   0  0  0  0  0  0  0  0  0  0  0  0
   -3.1163    5.0307    3.0038 C   0  0  0  0  0  0  0  0  0  0  0  0
    0.2400    2.3164    1.0000 C   0  0  0  0  0  0  0  0  0  0  0  0
    1.0000    1.0000    1.0000 C   0  0  0  0  0  0  0  0  0  0  0  0
    0.4000   -0.0392    1.0000 O   0  0  0  0  0  0  0  0  0  0  0  0
    2.3700    1.0000    1.0000 N   0  0  0  0  0  0  0  0  0  0  0  0
    3.1050   -0.2731    1.0000 C   0  0  0  0  0  0  0  0  0  0  0  0
    4.5994    0.0047    1.0000 C   0  0  0  0  0  0  0  0  0  0  0  0
    5.3594   -1.3117    1.0000 C   0  0  0  0  0  0  0  0  0  0  0  0
    7.1389   -0.9809    1.0000 S   0  0  0  0  0  0  0  0  0  0  0  0
    7.8839   -2.2713    1.0000 F   0  0  0  0  0  0  0  0  0  0  0  0
    7.4868   -0.2258   -0.1758 O   0  0  0  0  0  0  0  0  0  0  0  0
    7.4868   -0.2258    2.1758 O   0  0  0  0  0  0  0  0  0  0  0  0
  1  2  1  0
  2  3  2  0
  3  4  1  0
  4  5  2  0
  5  6  1  0
  6  7  2  0
  7  2  1  0
  5  8  1  0
  8  9  1  0
  9 10  1  0
 10 11  2  0
 10 12  1  0
  8 13  1  0
 13 14  1  0
 14 15  2  0
 14 16  1  0
 16 17  1  0
 17 18  1  0
 18 19  1  0
 19 20  1  0
 20 21  1  0
 20 22  2  0
 20 23  2  0
M  END
$$$$
s_22____2391588____16717358
     RDKit          3D

 27 27  0  0  0  0  0  0  0  0999 V2000
    2.5439   -1.8252   -2.0602 F   0  0  0  0  0  0  0  0  0  0  0  0
    2.2110   -0.5401   -1.9802 C   0  0  0  0  0  0  0  0  0  0  0  0
    2.3440    0.0275   -3.1756 F   0  0  0  0  0  0  0  0  0  0  0  0
    0.7677   -0.4183   -1.5193 C   0  0  0  0  0  0  0  0  0  0  0  0
    0.3997    1.0022   -1.4309 N   0  0  0  0  0  0  0  0  0  0  0  0
    0.7075    1.7208   -0.3059 C   0  0  0  0  0  0  0  0  0  0  0  0
    0.7461    2.9193   -0.3513 O   0  0  0  0  0  0  0  0  0  0  0  0
    1.0000    1.0000    1.0000 C   0  0  0  0  0  0  0  0  0  0  0  0
    1.8487    1.8487    1.8487 N   0  0  0  0  0  0  0  0  0  0  0  0
    3.0831    1.4052    2.2442 C   0  0  0  0  0  0  0  0  0  0  0  0
    3.4716    0.3240    1.8978 O   0  0  0  0  0  0  0  0  0  0  0  0
    3.9607    2.2828    3.1218 C   0  0  0  0  0  0  0  0  0  0  0  0
    5.2236    1.5857    3.4047 N   0  0  0  0  0  0  0  0  0  0  0  0
    6.1783    2.1863    4.1823 C   0  0  0  0  0  0  0  0  0  0  0  0
    5.9835    3.2815    4.6325 O   0  0  0  0  0  0  0  0  0  0  0  0
    7.4841    1.4655    4.4748 C   0  0  0  0  0  0  0  0  0  0  0  0
   -0.3059    0.7075    1.7208 C   0  0  0  0  0  0  0  0  0  0  0  0
   -0.1034   -0.4483    2.6871 C   0  0  0  0  0  0  0  0  0  0  0  0
   -0.3182   -1.7513    2.2501 C   0  0  0  0  0  0  0  0  0  0  0  0
   -0.1334   -2.8121    3.1305 C   0  0  0  0  0  0  0  0  0  0  0  0
    0.2650   -2.5557    4.4386 C   0  0  0  0  0  0  0  0  0  0  0  0
    0.4451   -3.5822    5.2965 O   0  0  0  0  0  0  0  0  0  0  0  0
    0.4809   -1.2545    4.8808 C   0  0  0  0  0  0  0  0  0  0  0  0
    0.2950   -0.1975    3.9961 C   0  0  0  0  0  0  0  0  0  0  0  0
   -0.2984    1.6516   -2.5498 C   0  0  0  0  0  0  0  0  0  0  0  0
   -1.8000    1.5129   -2.3589 C   0  0  0  0  0  0  0  0  0  0  0  0
   -2.5219    2.1843   -3.5158 C   0  0  0  0  0  0  0  0  0  0  0  0
  1  2  1  0
  2  3  1  0
  2  4  1  0
  4  5  1  0
  5  6  1  0
  6  7  2  0
  6  8  1  0
  8  9  1  0
  9 10  1  0
 10 11  2  0
 10 12  1  0
 12 13  1  0
 13 14  1  0
 14 15  2  0
 14 16  1  0
  8 17  1  0
 17 18  1  0
 18 19  2  0
 19 20  1  0
 20 21  2  0
 21 22  1  0
 21 23  1  0
 23 24  2  0
 24 18  1  0
  5 25  1  0
 25 26  1  0
 26 27  1  0
M  END
$$$$
s_527a____12913940____210093
     RDKit          3D

 22 22  0  0  0  0  0  0  0  0999 V2000
    0.4000    1.0000   -0.0392 O   0  0  0  0  0  0  0  0  0  0  0  0
    1.0000    1.0000    1.0000 C   0  0  0  0  0  0  0  0  0  0  0  0
    0.3150    1.0000    2.1865 N   0  0  0  0  0  0  0  0  0  0  0  0
   -1.1550    1.0000    2.1865 C   0  0  0  0  0  0  0  0  0  0  0  0
   -1.6617    2.2411    2.9030 C   0  0  0  0  0  0  0  0  0  0  0  0
   -3.0817    2.2411    2.9030 O   0  0  0  0  0  0  0  0  0  0  0  0
   -1.6617   -0.2411    2.9030 C   0  0  0  0  0  0  0  0  0  0  0  0
   -1.1550   -1.4821    2.1865 C   0  0  0  0  0  0  0  0  0  0  0  0
   -0.4076   -2.3379    2.8182 C   0  0  0  0  0  0  0  0  0  0  0  0
   -1.5222   -1.7227    0.7312 C   0  0  0  0  0  0  0  0  0  0  0  0
    2.5200    1.0000    1.0000 C   0  0  0  0  0  0  0  0  0  0  0  0
    3.0267    1.4309   -0.3667 C   0  0  0  0  0  0  0  0  0  0  0  0
    4.4521    1.7778   -0.2739 N   0  0  0  0  0  0  0  0  0  0  0  0
    4.8720    3.0415   -0.5957 C   0  0  0  0  0  0  0  0  0  0  0  0
    4.0761    3.8653   -0.9534 O   0  0  0  0  0  0  0  0  0  0  0  0
    6.3460    3.4001   -0.4997 C   0  0  0  0  0  0  0  0  0  0  0  0
    2.8458    0.2914   -1.3567 C   0  0  0  0  0  0  0  0  0  0  0  0
    3.4351   -0.9427   -1.1020 C   0  0  0  0  0  0  0  0  0  0  0  0
    3.2678   -1.9825   -2.0108 C   0  0  0  0  0  0  0  0  0  0  0  0
    2.5148   -1.7844   -3.1634 C   0  0  0  0  0  0  0  0  0  0  0  0
    1.9304   -0.5477   -3.4071 C   0  0  0  0  0  0  0  0  0  0  0  0
    2.0908    0.5002   -2.5064 C   0  0  0  0  0  0  0  0  0  0  0  0
  1  2  2  0
  2  3  1  0
  3  4  1  0
  4  5  1  0
  5  6  1  0
  4  7  1  0
  7  8  1  0
  8  9  2  0
  8 10  1  0
  2 11  1  0
 11 12  1  0
 12 13  1  0
 13 14  1  0
 14 15  2  0
 14 16  1  0
 12 17  1  0
 17 18  2  0
 18 19  1  0
 19 20  2  0
 20 21  1  0
 21 22  2  0
 22 17  1  0
M  END
$$$$
s_2708____11987194____911554
     RDKit          3D

 24 24  0  0  0  0  0  0  0  0999 V2000
    6.9950    1.0230    1.6053 F   0  0  0  0  0  0  0  0  0  0  0  0
    6.5517    0.0624    2.4113 C   0  0  0  0  0  0  0  0  0  0  0  0
    5.0317    0.0624    2.4113 C   0  0  0  0  0  0  0  0  0  0  0  0
    4.5250   -0.1865    1.0000 C   0  0  0  0  0  0  0  0  0  0  0  0
    3.0550   -0.1865    1.0000 N   0  0  0  0  0  0  0  0  0  0  0  0
    2.3700    1.0000    1.0000 C   0  0  0  0  0  0  0  0  0  0  0  0
    2.9700    2.0392    1.0000 O   0  0  0  0  0  0  0  0  0  0  0  0
    1.0000    1.0000    1.0000 N   0  0  0  0  0  0  0  0  0  0  0  0
    0.2650    2.2731    1.0000 C   0  0  0  0  0  0  0  0  0  0  0  0
    0.0116    2.7120   -0.4335 C   0  0  0  0  0  0  0  0  0  0  0  0
   -1.1480    2.3102   -1.0892 C   0  0  0  0  0  0  0  0  0  0  0  0
   -2.0582    1.5301   -0.4677 O   0  0  0  0  0  0  0  0  0  0  0  0
   -3.2360    1.1297   -1.1524 C   0  0  0  0  0  0  0  0  0  0  0  0
   -4.0854    0.2642   -0.2361 C   0  0  0  0  0  0  0  0  0  0  0  0
   -1.3798    2.7116   -2.4011 C   0  0  0  0  0  0  0  0  0  0  0  0
   -0.4522    3.5153   -3.0568 C   0  0  0  0  0  0  0  0  0  0  0  0
    0.7068    3.9174   -2.4005 C   0  0  0  0  0  0  0  0  0  0  0  0
    0.9382    3.5161   -1.0888 C   0  0  0  0  0  0  0  0  0  0  0  0
    0.2650   -0.2731    1.0000 C   0  0  0  0  0  0  0  0  0  0  0  0
    0.0117   -0.7118    2.4331 C   0  0  0  0  0  0  0  0  0  0  0  0
    1.2524   -0.8816    3.1025 O   0  0  0  0  0  0  0  0  0  0  0  0
   -0.7483   -2.0282    2.4331 C   0  0  0  0  0  0  0  0  0  0  0  0
    7.0583    0.3112    3.8226 C   0  0  0  0  0  0  0  0  0  0  0  0
    7.0583   -1.2842    1.9212 C   0  0  0  0  0  0  0  0  0  0  0  0
  1  2  1  0
  2  3  1  0
  3  4  1  0
  4  5  1  0
  5  6  1  0
  6  7  2  0
  6  8  1  0
  8  9  1  0
  9 10  1  0
 10 11  2  0
 11 12  1  0
 12 13  1  0
 13 14  1  0
 11 15  1  0
 15 16  2  0
 16 17  1  0
 17 18  2  0
 18 10  1  0
  8 19  1  0
 19 20  1  0
 20 21  1  0
 20 22  1  0
  2 23  1  0
  2 24  1  0
M  END
$$$$
s_188690b____14468518____13244122
     RDKit          3D

 23 23  0  0  0  0  0  0  0  0999 V2000
   -2.7917    2.6300    2.7137 O   0  0  0  0  0  0  0  0  0  0  0  0
   -1.6617    2.2411    2.9030 C   0  0  0  0  0  0  0  0  0  0  0  0
   -0.9109    2.8599    3.6878 O   0  0  0  0  0  0  0  0  0  0  0  0
   -1.1550    1.0000    2.1865 C   0  0  0  0  0  0  0  0  0  0  0  0
    0.3150    1.0000    2.1865 N   0  0  0  0  0  0  0  0  0  0  0  0
    1.0000    1.0000    1.0000 C   0  0  0  0  0  0  0  0  0  0  0  0
    0.4000    1.0000   -0.0392 O   0  0  0  0  0  0  0  0  0  0  0  0
    2.5200    1.0000    1.0000 C   0  0  0  0  0  0  0  0  0  0  0  0
    3.0100    0.3070   -0.2002 N   0  0  0  0  0  0  0  0  0  0  0  0
    4.3049    0.8762   -0.6003 C   0  0  0  0  0  0  0  0  0  0  0  0
    4.0755    2.1717   -1.3615 C   0  0  0  0  0  0  0  0  0  0  0  0
    5.3948    2.6633   -1.9344 C   0  0  0  0  0  0  0  0  0  0  0  0
    3.0914    1.9267   -2.4937 C   0  0  0  0  0  0  0  0  0  0  0  0
    3.5108    3.2208   -0.4175 C   0  0  0  0  0  0  0  0  0  0  0  0
    3.1733   -1.1242    0.0926 C   0  0  0  0  0  0  0  0  0  0  0  0
   -1.6617   -0.2411    2.9030 C   0  0  0  0  0  0  0  0  0  0  0  0
   -1.1548   -1.4825    2.1862 C   0  0  0  0  0  0  0  0  0  0  0  0
   -1.9070   -2.0504    1.1626 C   0  0  0  0  0  0  0  0  0  0  0  0
   -3.0892   -1.5123    0.7936 O   0  0  0  0  0  0  0  0  0  0  0  0
   -1.4433   -3.1866    0.5068 C   0  0  0  0  0  0  0  0  0  0  0  0
   -0.2273   -3.7543    0.8744 C   0  0  0  0  0  0  0  0  0  0  0  0
    0.5248   -3.1857    1.8976 C   0  0  0  0  0  0  0  0  0  0  0  0
    0.0611   -2.0496    2.5529 C   0  0  0  0  0  0  0  0  0  0  0  0
  1  2  1  0
  2  3  2  0
  2  4  1  0
  4  5  1  0
  5  6  1  0
  6  7  2  0
  6  8  1  0
  8  9  1  0
  9 10  1  0
 10 11  1  0
 11 12  1  0
 11 13  1  0
 11 14  1  0
  9 15  1  0
  4 16  1  0
 16 17  1  0
 17 18  2  0
 18 19  1  0
 18 20  1  0
 20 21  2  0
 21 22  1  0
 22 23  2  0
 23 17  1  0
M  CHG  2   1  -1   9   1
M  END
$$$$
s_527a____10737786____3192128
     RDKit          3D

 25 26  0  0  0  0  0  0  0  0999 V2000
    1.9688    3.0524    1.6507 O   0  0  0  0  0  0  0  0  0  0  0  0
    1.8776    1.8776    1.8776 C   0  0  0  0  0  0  0  0  0  0  0  0
    2.5644    1.3273    2.9275 N   0  0  0  0  0  0  0  0  0  0  0  0
    3.4131    2.1760    3.7762 C   0  0  0  0  0  0  0  0  0  0  0  0
    4.0575    1.3261    4.8594 C   0  0  0  0  0  0  0  0  0  0  0  0
    3.0847    0.6613    5.7334 N   0  0  0  0  0  0  0  0  0  0  0  0
    2.2545    1.6737    6.4018 C   0  0  0  0  0  0  0  0  0  0  0  0
    5.1610    2.0736    5.5736 C   0  0  0  0  0  0  0  0  0  0  0  0
    5.9480    0.7798    5.5461 C   0  0  0  0  0  0  0  0  0  0  0  0
    5.1591    0.4552    4.2963 C   0  0  0  0  0  0  0  0  0  0  0  0
    1.0000    1.0000    1.0000 C   0  0  0  0  0  0  0  0  0  0  0  0
    0.7075    1.7208   -0.3059 C   0  0  0  0  0  0  0  0  0  0  0  0
   -0.2825    0.9552   -1.0771 N   0  0  0  0  0  0  0  0  0  0  0  0
   -1.4824    1.5266   -1.4097 C   0  0  0  0  0  0  0  0  0  0  0  0
   -1.7253    2.6520   -1.0715 O   0  0  0  0  0  0  0  0  0  0  0  0
   -2.5060    0.7349   -2.2071 C   0  0  0  0  0  0  0  0  0  0  0  0
    1.9899    1.8484   -1.1126 C   0  0  0  0  0  0  0  0  0  0  0  0
    2.3107    3.0573   -1.7222 C   0  0  0  0  0  0  0  0  0  0  0  0
    1.4943    4.1268   -1.6080 O   0  0  0  0  0  0  0  0  0  0  0  0
    1.9297    5.4031   -2.0527 C   0  0  0  0  0  0  0  0  0  0  0  0
    0.8309    6.4254   -1.8122 C   0  0  0  0  0  0  0  0  0  0  0  0
    3.4842    3.1740   -2.4607 C   0  0  0  0  0  0  0  0  0  0  0  0
    4.3369    2.0819   -2.5890 C   0  0  0  0  0  0  0  0  0  0  0  0
    4.0159    0.8734   -1.9787 C   0  0  0  0  0  0  0  0  0  0  0  0
    2.8428    0.7571   -1.2402 C   0  0  0  0  0  0  0  0  0  0  0  0
  1  2  2  0
  2  3  1  0
  3  4  1  0
  4  5  1  0
  5  6  1  0
  6  7  1  0
  5  8  1  0
  8  9  1  0
  9 10  1  0
 10  5  1  0
  2 11  1  0
 11 12  1  0
 12 13  1  0
 13 14  1  0
 14 15  2  0
 14 16  1  0
 12 17  1  0
 17 18  2  0
 18 19  1  0
 19 20  1  0
 20 21  1  0
 18 22  1  0
 22 23  2  0
 23 24  1  0
 24 25  2  0
 25 17  1  0
M  CHG  1   6   1
M  END
$$$$
s_527a____11246852____3192128
     RDKit          3D

 25 26  0  0  0  0  0  0  0  0999 V2000
    1.9688    3.0524    1.6507 O   0  0  0  0  0  0  0  0  0  0  0  0
    1.8776    1.8776    1.8776 C   0  0  0  0  0  0  0  0  0  0  0  0
    2.5644    1.3273    2.9275 N   0  0  0  0  0  0  0  0  0  0  0  0
    3.4131    2.1760    3.7762 C   0  0  0  0  0  0  0  0  0  0  0  0
    4.0571    1.3266    4.8587 C   0  0  0  0  0  0  0  0  0  0  0  0
    3.0019    0.6646    5.7308 C   0  0  0  0  0  0  0  0  0  0  0  0
    2.2108    0.1682    6.3846 N   0  0  0  0  0  0  0  0  0  0  0  0
    5.1550    0.3814    4.4035 C   0  0  0  0  0  0  0  0  0  0  0  0
    6.1262    1.5174    4.6107 C   0  0  0  0  0  0  0  0  0  0  0  0
    5.1471    2.0021    5.6554 C   0  0  0  0  0  0  0  0  0  0  0  0
    1.0000    1.0000    1.0000 C   0  0  0  0  0  0  0  0  0  0  0  0
    0.7075    1.7208   -0.3059 C   0  0  0  0  0  0  0  0  0  0  0  0
   -0.2825    0.9552   -1.0771 N   0  0  0  0  0  0  0  0  0  0  0  0
   -1.4824    1.5266   -1.4097 C   0  0  0  0  0  0  0  0  0  0  0  0
   -1.7253    2.6520   -1.0715 O   0  0  0  0  0  0  0  0  0  0  0  0
   -2.5060    0.7349   -2.2071 C   0  0  0  0  0  0  0  0  0  0  0  0
    1.9899    1.8484   -1.1126 C   0  0  0  0  0  0  0  0  0  0  0  0
    2.3107    3.0573   -1.7222 C   0  0  0  0  0  0  0  0  0  0  0  0
    1.4943    4.1268   -1.6080 O   0  0  0  0  0  0  0  0  0  0  0  0
    1.9297    5.4031   -2.0527 C   0  0  0  0  0  0  0  0  0  0  0  0
    0.8309    6.4254   -1.8122 C   0  0  0  0  0  0  0  0  0  0  0  0
    3.4842    3.1740   -2.4607 C   0  0  0  0  0  0  0  0  0  0  0  0
    4.3369    2.0819   -2.5890 C   0  0  0  0  0  0  0  0  0  0  0  0
    4.0159    0.8734   -1.9787 C   0  0  0  0  0  0  0  0  0  0  0  0
    2.8428    0.7571   -1.2402 C   0  0  0  0  0  0  0  0  0  0  0  0
  1  2  2  0
  2  3  1  0
  3  4  1  0
  4  5  1  0
  5  6  1  0
  6  7  3  0
  5  8  1  0
  8  9  1  0
  9 10  1  0
 10  5  1  0
  2 11  1  0
 11 12  1  0
 12 13  1  0
 13 14  1  0
 14 15  2  0
 14 16  1  0
 12 17  1  0
 17 18  2  0
 18 19  1  0
 19 20  1  0
 20 21  1  0
 18 22  1  0
 22 23  2  0
 23 24  1  0
 24 25  2  0
 25 17  1  0
M  END
$$$$
s_2430a____16634140____14422702
     RDKit          3D

 24 24  0  0  0  0  0  0  0  0999 V2000
   -2.9917    2.9030   -0.2411 F   0  0  0  0  0  0  0  0  0  0  0  0
   -1.6617    2.9030   -0.2411 C   0  0  0  0  0  0  0  0  0  0  0  0
   -1.2183    4.1569   -0.2411 F   0  0  0  0  0  0  0  0  0  0  0  0
   -1.2183    2.2760   -1.3270 F   0  0  0  0  0  0  0  0  0  0  0  0
   -1.1550    2.1865    1.0000 C   0  0  0  0  0  0  0  0  0  0  0  0
    0.3150    2.1865    1.0000 N   0  0  0  0  0  0  0  0  0  0  0  0
    1.0000    1.0000    1.0000 C   0  0  0  0  0  0  0  0  0  0  0  0
    0.4000   -0.0392    1.0000 O   0  0  0  0  0  0  0  0  0  0  0  0
    2.3700    1.0000    1.0000 N   0  0  0  0  0  0  0  0  0  0  0  0
    3.1050   -0.2731    1.0000 C   0  0  0  0  0  0  0  0  0  0  0  0
    3.9789   -0.3536    2.2411 C   0  0  0  0  0  0  0  0  0  0  0  0
    5.0852   -0.8125    2.1672 O   0  0  0  0  0  0  0  0  0  0  0  0
    3.5034    0.0977    3.4441 N   0  0  0  0  0  0  0  0  0  0  0  0
    3.9789   -0.3536   -0.2411 C   0  0  0  0  0  0  0  0  0  0  0  0
    3.1050   -0.2731   -1.4822 C   0  0  0  0  0  0  0  0  0  0  0  0
    2.8226    0.9691   -2.0410 C   0  0  0  0  0  0  0  0  0  0  0  0
    2.0241    1.0476   -3.1770 C   0  0  0  0  0  0  0  0  0  0  0  0
    1.5177   -0.1192   -3.7409 C   0  0  0  0  0  0  0  0  0  0  0  0
    0.7420   -0.0476   -4.8432 O   0  0  0  0  0  0  0  0  0  0  0  0
    1.7968   -1.3640   -3.1858 C   0  0  0  0  0  0  0  0  0  0  0  0
    2.5962   -1.4366   -2.0500 C   0  0  0  0  0  0  0  0  0  0  0  0
   -1.6617    2.9030    2.2411 C   0  0  0  0  0  0  0  0  0  0  0  0
   -1.1550    2.1865    3.4821 C   0  0  0  0  0  0  0  0  0  0  0  0
   -1.6617    2.9030    4.7232 C   0  0  0  0  0  0  0  0  0  0  0  0
  1  2  1  0
  2  3  1  0
  2  4  1  0
  2  5  1  0
  5  6  1  0
  6  7  1  0
  7  8  2  0
  7  9  1  0
  9 10  1  0
 10 11  1  0
 11 12  2  0
 11 13  1  0
 10 14  1  0
 14 15  1  0
 15 16  2  0
 16 17  1  0
 17 18  2  0
 18 19  1  0
 18 20  1  0
 20 21  2  0
 21 15  1  0
  5 22  1  0
 22 23  1  0
 23 24  1  0
M  END
$$$$
s_11a____10641116____12900016
     RDKit          3D

 20 20  0  0  0  0  0  0  0  0999 V2000
   -2.9917   -0.2411    2.9030 F   0  0  0  0  0  0  0  0  0  0  0  0
   -1.6617   -0.2411    2.9030 C   0  0  0  0  0  0  0  0  0  0  0  0
   -1.2183   -1.3270    2.2760 F   0  0  0  0  0  0  0  0  0  0  0  0
   -1.1550    1.0000    2.1865 C   0  0  0  0  0  0  0  0  0  0  0  0
    0.3150    1.0000    2.1865 N   0  0  0  0  0  0  0  0  0  0  0  0
    1.0000    1.0000    1.0000 C   0  0  0  0  0  0  0  0  0  0  0  0
    0.4000    1.0000   -0.0392 O   0  0  0  0  0  0  0  0  0  0  0  0
    2.5200    1.0000    1.0000 C   0  0  0  0  0  0  0  0  0  0  0  0
    3.0100    1.0000   -0.3859 N   0  0  0  0  0  0  0  0  0  0  0  0
    3.2434   -0.2126   -1.0460 C   0  0  0  0  0  0  0  0  0  0  0  0
    2.2184   -0.8090   -1.7736 C   0  0  0  0  0  0  0  0  0  0  0  0
    2.4541   -2.0135   -2.4281 C   0  0  0  0  0  0  0  0  0  0  0  0
    3.7069   -2.6126   -2.3521 C   0  0  0  0  0  0  0  0  0  0  0  0
    4.7243   -2.0071   -1.6223 C   0  0  0  0  0  0  0  0  0  0  0  0
    4.5003   -0.8027   -0.9635 C   0  0  0  0  0  0  0  0  0  0  0  0
    3.2383    2.1865   -1.0318 C   0  0  0  0  0  0  0  0  0  0  0  0
    3.0383    3.2257   -0.4661 O   0  0  0  0  0  0  0  0  0  0  0  0
    3.7450    2.1865   -2.4648 C   0  0  0  0  0  0  0  0  0  0  0  0
   -1.6617    2.2411    2.9030 C   0  0  0  0  0  0  0  0  0  0  0  0
   -1.1550    3.4821    2.1865 C   0  0  0  0  0  0  0  0  0  0  0  0
  1  2  1  0
  2  3  1  0
  2  4  1  0
  4  5  1  0
  5  6  1  0
  6  7  2  0
  6  8  1  0
  8  9  1  0
  9 10  1  0
 10 11  2  0
 11 12  1  0
 12 13  2  0
 13 14  1  0
 14 15  2  0
 15 10  1  0
  9 16  1  0
 16 17  2  0
 16 18  1  0
  4 19  1  0
 19 20  1  0
M  END
$$$$
s_22____9749456____12624298
     RDKit          3D

 21 21  0  0  0  0  0  0  0  0999 V2000
   -1.6279    5.9701    3.9940 Br  0  0  0  0  0  0  0  0  0  0  0  0
   -2.0601    4.5331    2.7334 C   0  0  0  0  0  0  0  0  0  0  0  0
   -1.4973    3.2734    2.9068 C   0  0  0  0  0  0  0  0  0  0  0  0
   -1.8135    2.2640    2.0028 C   0  0  0  0  0  0  0  0  0  0  0  0
   -2.6775    2.5003    0.9389 C   0  0  0  0  0  0  0  0  0  0  0  0
   -3.2288    3.7679    0.7836 C   0  0  0  0  0  0  0  0  0  0  0  0
   -2.9260    4.7910    1.6760 C   0  0  0  0  0  0  0  0  0  0  0  0
   -1.2007    0.8853    2.1890 C   0  0  0  0  0  0  0  0  0  0  0  0
   -1.6471    0.3195    3.4702 N   0  0  0  0  0  0  0  0  0  0  0  0
   -2.3479   -0.8575    3.4922 C   0  0  0  0  0  0  0  0  0  0  0  0
   -2.5972   -1.4266    2.4656 O   0  0  0  0  0  0  0  0  0  0  0  0
   -2.8095   -1.4425    4.8170 C   0  0  0  0  0  0  0  0  0  0  0  0
    0.3150    1.0000    2.1865 C   0  0  0  0  0  0  0  0  0  0  0  0
    0.9116    1.0906    3.2237 O   0  0  0  0  0  0  0  0  0  0  0  0
    1.0000    1.0000    1.0000 N   0  0  0  0  0  0  0  0  0  0  0  0
    2.4700    1.0000    1.0000 C   0  0  0  0  0  0  0  0  0  0  0  0
    2.9767   -0.4331    1.0000 C   0  0  0  0  0  0  0  0  0  0  0  0
    4.4967   -0.4331    1.0000 C   0  0  0  0  0  0  0  0  0  0  0  0
    5.1000   -2.1396    1.0000 S   0  0  0  0  0  0  0  0  0  0  0  0
    4.6179   -2.6103    2.6799 C   0  0  0  0  0  0  0  0  0  0  0  0
    0.2650    1.0000   -0.2731 C   0  0  0  0  0  0  0  0  0  0  0  0
  1  2  1  0
  2  3  2  0
  3  4  1  0
  4  5  2  0
  5  6  1  0
  6  7  2  0
  7  2  1  0
  4  8  1  0
  8  9  1  0
  9 10  1  0
 10 11  2  0
 10 12  1  0
  8 13  1  0
 13 14  2  0
 13 15  1  0
 15 16  1  0
 16 17  1  0
 17 18  1  0
 18 19  1  0
 19 20  1  0
 15 21  1  0
M  END
$$$$
s_2708____11967204____2443830
     RDKit          3D

 22 23  0  0  0  0  0  0  0  0999 V2000
    0.1374    3.0763    2.5736 O   0  0  0  0  0  0  0  0  0  0  0  0
    1.2755    2.7286    2.7286 C   0  0  0  0  0  0  0  0  0  0  0  0
    2.0196    3.2235    3.8117 N   0  0  0  0  0  0  0  0  0  0  0  0
    1.6687    4.4526    4.5427 C   0  0  0  0  0  0  0  0  0  0  0  0
    0.7101    5.3428    3.7682 C   0  0  0  0  0  0  0  0  0  0  0  0
   -0.6468    5.3242    4.0739 C   0  0  0  0  0  0  0  0  0  0  0  0
   -1.5207    6.1397    3.3622 C   0  0  0  0  0  0  0  0  0  0  0  0
   -1.0355    6.9665    2.3544 C   0  0  0  0  0  0  0  0  0  0  0  0
    0.3219    6.9771    2.0580 C   0  0  0  0  0  0  0  0  0  0  0  0
    1.2058    6.1658    2.7620 C   0  0  0  0  0  0  0  0  0  0  0  0
    2.8987    5.2963    4.8643 C   0  0  0  0  0  0  0  0  0  0  0  0
    2.7836    6.4490    5.2508 O   0  0  0  0  0  0  0  0  0  0  0  0
    4.1876    4.7757    4.6918 N   0  0  0  0  0  0  0  0  0  0  0  0
    4.4367    3.4229    4.1702 C   0  0  0  0  0  0  0  0  0  0  0  0
    3.2091    2.5427    4.3431 C   0  0  0  0  0  0  0  0  0  0  0  0
    1.8487    1.8487    1.8487 N   0  0  0  0  0  0  0  0  0  0  0  0
    1.0000    1.0000    1.0000 C   0  0  0  0  0  0  0  0  0  0  0  0
   -0.3059    0.7075    1.7208 C   0  0  0  0  0  0  0  0  0  0  0  0
   -1.3282    0.4785    2.2851 C   0  0  0  0  0  0  0  0  0  0  0  0
    0.7075    1.7208   -0.3059 C   0  0  0  0  0  0  0  0  0  0  0  0
   -0.1701    0.8432   -1.1834 C   0  0  0  0  0  0  0  0  0  0  0  0
   -0.4626    1.5640   -2.4893 C   0  0  0  0  0  0  0  0  0  0  0  0
  1  2  2  0
  2  3  1  0
  3  4  1  0
  4  5  1  0
  5  6  2  0
  6  7  1  0
  7  8  2  0
  8  9  1  0
  9 10  2  0
 10  5  1  0
  4 11  1  0
 11 12  2  0
 11 13  1  0
 13 14  1  0
 14 15  1  0
 15  3  1  0
  2 16  1  0
 16 17  1  0
 17 18  1  0
 18 19  3  0
 17 20  1  0
 20 21  1  0
 21 22  1  0
M  END
$$$$
s_22____2440394____17513450
     RDKit          3D

 23 23  0  0  0  0  0  0  0  0999 V2000
   -2.9917   -0.4331    2.1865 F   0  0  0  0  0  0  0  0  0  0  0  0
   -1.6617   -0.4331    2.1865 C   0  0  0  0  0  0  0  0  0  0  0  0
   -1.2183   -1.0600    1.1005 F   0  0  0  0  0  0  0  0  0  0  0  0
   -1.2183   -1.0600    3.2724 F   0  0  0  0  0  0  0  0  0  0  0  0
   -1.1550    1.0000    2.1865 C   0  0  0  0  0  0  0  0  0  0  0  0
    0.3150    1.0000    2.1865 N   0  0  0  0  0  0  0  0  0  0  0  0
    1.0000    1.0000    1.0000 C   0  0  0  0  0  0  0  0  0  0  0  0
    0.4000    1.0000   -0.0392 O   0  0  0  0  0  0  0  0  0  0  0  0
    2.5200    1.0000    1.0000 C   0  0  0  0  0  0  0  0  0  0  0  0
    3.0100    1.6930   -0.2002 N   0  0  0  0  0  0  0  0  0  0  0  0
    3.2383    3.0434   -0.1663 C   0  0  0  0  0  0  0  0  0  0  0  0
    3.0383    3.6605    0.8432 O   0  0  0  0  0  0  0  0  0  0  0  0
    3.7450    3.7599   -1.4074 C   0  0  0  0  0  0  0  0  0  0  0  0
    3.0267   -0.4331    1.0000 C   0  0  0  0  0  0  0  0  0  0  0  0
    4.5467   -0.4331    1.0000 C   0  0  0  0  0  0  0  0  0  0  0  0
    5.2311   -0.4331    2.2110 C   0  0  0  0  0  0  0  0  0  0  0  0
    6.6219   -0.4338    2.2159 C   0  0  0  0  0  0  0  0  0  0  0  0
    7.3116   -0.4351    1.0075 C   0  0  0  0  0  0  0  0  0  0  0  0
    8.7316   -0.4355    1.0077 O   0  0  0  0  0  0  0  0  0  0  0  0
    6.6320   -0.4347   -0.2063 C   0  0  0  0  0  0  0  0  0  0  0  0
    5.2412   -0.4344   -0.2053 C   0  0  0  0  0  0  0  0  0  0  0  0
    1.0500    1.0000    3.4595 C   0  0  0  0  0  0  0  0  0  0  0  0
    1.3033    2.4331    3.8983 C   0  0  0  0  0  0  0  0  0  0  0  0
  1  2  1  0
  2  3  1  0
  2  4  1  0
  2  5  1  0
  5  6  1  0
  6  7  1  0
  7  8  2  0
  7  9  1  0
  9 10  1  0
 10 11  1  0
 11 12  2  0
 11 13  1  0
  9 14  1  0
 14 15  1  0
 15 16  2  0
 16 17  1  0
 17 18  2  0
 18 19  1  0
 18 20  1  0
 20 21  2  0
 21 15  1  0
  6 22  1  0
 22 23  1  0
M  END
$$$$
s_11a____7838284____12624296
     RDKit          3D

 19 19  0  0  0  0  0  0  0  0999 V2000
    4.5183    2.2810   -3.8643 Br  0  0  0  0  0  0  0  0  0  0  0  0
    3.9141    0.9881   -2.5211 C   0  0  0  0  0  0  0  0  0  0  0  0
    3.4515    1.4403   -1.2902 C   0  0  0  0  0  0  0  0  0  0  0  0
    3.0268    0.5098   -0.3469 C   0  0  0  0  0  0  0  0  0  0  0  0
    3.0601   -0.8534   -0.6203 C   0  0  0  0  0  0  0  0  0  0  0  0
    3.5272   -1.2841   -1.8577 C   0  0  0  0  0  0  0  0  0  0  0  0
    3.9564   -0.3707   -2.8148 C   0  0  0  0  0  0  0  0  0  0  0  0
    2.5200    1.0000    1.0000 C   0  0  0  0  0  0  0  0  0  0  0  0
    3.0100    0.1091    2.0617 N   0  0  0  0  0  0  0  0  0  0  0  0
    3.7976    0.6082    3.0654 C   0  0  0  0  0  0  0  0  0  0  0  0
    4.0875    1.7726    3.0779 O   0  0  0  0  0  0  0  0  0  0  0  0
    4.3043   -0.3129    4.1632 C   0  0  0  0  0  0  0  0  0  0  0  0
    1.0000    1.0000    1.0000 C   0  0  0  0  0  0  0  0  0  0  0  0
    0.4000    1.0000   -0.0392 O   0  0  0  0  0  0  0  0  0  0  0  0
    0.3150    1.0000    2.1865 N   0  0  0  0  0  0  0  0  0  0  0  0
   -1.1550    1.0000    2.1865 C   0  0  0  0  0  0  0  0  0  0  0  0
   -1.6617   -0.2411    2.9030 C   0  0  0  0  0  0  0  0  0  0  0  0
   -2.0417   -1.1719    3.4404 N   0  0  0  0  0  0  0  0  0  0  0  0
   -1.6617    2.2411    2.9030 C   0  0  0  0  0  0  0  0  0  0  0  0
  1  2  1  0
  2  3  2  0
  3  4  1  0
  4  5  2  0
  5  6  1  0
  6  7  2  0
  7  2  1  0
  4  8  1  0
  8  9  1  0
  9 10  1  0
 10 11  2  0
 10 12  1  0
  8 13  1  0
 13 14  2  0
 13 15  1  0
 15 16  1  0
 16 17  1  0
 17 18  3  0
 16 19  1  0
M  END
$$$$
s_22____14597438____17513450
     RDKit          3D

 23 24  0  0  0  0  0  0  0  0999 V2000
    0.4000   -0.0392    1.0000 O   0  0  0  0  0  0  0  0  0  0  0  0
    1.0000    1.0000    1.0000 C   0  0  0  0  0  0  0  0  0  0  0  0
    2.3700    1.0000    1.0000 N   0  0  0  0  0  0  0  0  0  0  0  0
    3.1050   -0.2731    1.0000 C   0  0  0  0  0  0  0  0  0  0  0  0
    3.3583   -0.7118   -0.4331 C   0  0  0  0  0  0  0  0  0  0  0  0
    4.0683   -1.9416   -0.4331 O   0  0  0  0  0  0  0  0  0  0  0  0
    4.3048   -2.3511   -1.7706 C   0  0  0  0  0  0  0  0  0  0  0  0
    5.1150   -1.3376   -2.5269 C   0  0  0  0  0  0  0  0  0  0  0  0
    3.6355   -1.4420   -2.7620 C   0  0  0  0  0  0  0  0  0  0  0  0
    3.1050    2.2731    1.0000 C   0  0  0  0  0  0  0  0  0  0  0  0
    0.2400    2.3164    1.0000 C   0  0  0  0  0  0  0  0  0  0  0  0
   -1.0444    2.1406    1.6930 N   0  0  0  0  0  0  0  0  0  0  0  0
   -1.1292    2.3553    3.0434 C   0  0  0  0  0  0  0  0  0  0  0  0
   -0.1550    2.6868    3.6605 O   0  0  0  0  0  0  0  0  0  0  0  0
   -2.4574    2.1735    3.7599 C   0  0  0  0  0  0  0  0  0  0  0  0
   -0.0133    2.7551   -0.4331 C   0  0  0  0  0  0  0  0  0  0  0  0
   -0.7734    4.0715   -0.4331 C   0  0  0  0  0  0  0  0  0  0  0  0
   -0.0668    5.2697   -0.4331 C   0  0  0  0  0  0  0  0  0  0  0  0
   -0.7580    6.4767   -0.4338 C   0  0  0  0  0  0  0  0  0  0  0  0
   -2.1493    6.4698   -0.4351 C   0  0  0  0  0  0  0  0  0  0  0  0
   -2.8591    7.6996   -0.4355 O   0  0  0  0  0  0  0  0  0  0  0  0
   -2.8607    5.2743   -0.4347 C   0  0  0  0  0  0  0  0  0  0  0  0
   -2.1644    4.0703   -0.4344 C   0  0  0  0  0  0  0  0  0  0  0  0
  1  2  2  0
  2  3  1  0
  3  4  1  0
  4  5  1  0
  5  6  1  0
  6  7  1  0
  7  8  1  0
  8  9  1  0
  9  7  1  0
  3 10  1  0
  2 11  1  0
 11 12  1  0
 12 13  1  0
 13 14  2  0
 13 15  1  0
 11 16  1  0
 16 17  1  0
 17 18  2  0
 18 19  1  0
 19 20  2  0
 20 21  1  0
 20 22  1  0
 22 23  2  0
 23 17  1  0
M  END
$$$$
s_22____16911156____3703044
     RDKit          3D

 23 23  0  0  0  0  0  0  0  0999 V2000
   -3.2384   -4.7992    3.1992 Br  0  0  0  0  0  0  0  0  0  0  0  0
   -2.5844   -2.9796    2.8788 C   0  0  0  0  0  0  0  0  0  0  0  0
   -2.3540   -2.5496    1.5760 C   0  0  0  0  0  0  0  0  0  0  0  0
   -1.8898   -1.2571    1.3549 C   0  0  0  0  0  0  0  0  0  0  0  0
   -1.6616   -0.4112    2.4353 C   0  0  0  0  0  0  0  0  0  0  0  0
   -1.8942   -0.8477    3.7357 C   0  0  0  0  0  0  0  0  0  0  0  0
   -2.3583   -2.1391    3.9645 C   0  0  0  0  0  0  0  0  0  0  0  0
   -1.1550    1.0000    2.1865 C   0  0  0  0  0  0  0  0  0  0  0  0
    0.3150    1.0000    2.1865 N   0  0  0  0  0  0  0  0  0  0  0  0
    1.0000    1.0000    1.0000 C   0  0  0  0  0  0  0  0  0  0  0  0
    0.4000    1.0000   -0.0392 O   0  0  0  0  0  0  0  0  0  0  0  0
    2.5200    1.0000    1.0000 C   0  0  0  0  0  0  0  0  0  0  0  0
    3.0100    1.8909   -0.0617 N   0  0  0  0  0  0  0  0  0  0  0  0
    2.9464    3.2849    0.4003 C   0  0  0  0  0  0  0  0  0  0  0  0
    3.2749    4.2169   -0.7547 C   0  0  0  0  0  0  0  0  0  0  0  0
    3.2092    5.6584   -0.2770 C   0  0  0  0  0  0  0  0  0  0  0  0
    4.4012    1.5456   -0.3877 C   0  0  0  0  0  0  0  0  0  0  0  0
    1.0500    1.0000    3.4595 C   0  0  0  0  0  0  0  0  0  0  0  0
    1.3033    2.4331    3.8983 C   0  0  0  0  0  0  0  0  0  0  0  0
    0.9134    3.3452    3.2230 O   0  0  0  0  0  0  0  0  0  0  0  0
    1.9768    2.6834    5.0648 N   0  0  0  0  0  0  0  0  0  0  0  0
    2.2218    4.0693    5.4891 C   0  0  0  0  0  0  0  0  0  0  0  0
    2.4544    1.5661    5.8920 C   0  0  0  0  0  0  0  0  0  0  0  0
  1  2  1  0
  2  3  2  0
  3  4  1  0
  4  5  2  0
  5  6  1  0
  6  7  2  0
  7  2  1  0
  5  8  1  0
  8  9  1  0
  9 10  1  0
 10 11  2  0
 10 12  1  0
 12 13  1  0
 13 14  1  0
 14 15  1  0
 15 16  1  0
 13 17  1  0
  9 18  1  0
 18 19  1  0
 19 20  2  0
 19 21  1  0
 21 22  1  0
 21 23  1  0
M  CHG  1  13   1
M  END
$$$$
s_527a____17514474____17513452
     RDKit          3D

 23 25  0  0  0  0  0  0  0  0999 V2000
    3.0596    1.6786    1.9338 O   0  0  0  0  0  0  0  0  0  0  0  0
    1.8776    1.8776    1.8776 C   0  0  0  0  0  0  0  0  0  0  0  0
    1.3078    2.9162    2.6190 N   0  0  0  0  0  0  0  0  0  0  0  0
   -0.0320    3.4800    2.8310 C   0  0  0  0  0  0  0  0  0  0  0  0
    0.6119    4.7268    3.3804 C   0  0  0  0  0  0  0  0  0  0  0  0
    0.0623    5.5627    4.5094 C   0  0  0  0  0  0  0  0  0  0  0  0
   -1.4254    5.3579    4.7861 C   0  0  0  0  0  0  0  0  0  0  0  0
   -2.5360    5.2049    4.9927 N   0  0  0  0  0  0  0  0  0  0  0  0
    0.2913    6.1766    3.1590 C   0  0  0  0  0  0  0  0  0  0  0  0
    1.8366    3.8658    3.5970 C   0  0  0  0  0  0  0  0  0  0  0  0
    1.0000    1.0000    1.0000 C   0  0  0  0  0  0  0  0  0  0  0  0
   -0.2629    0.7171    1.6971 N   0  0  0  0  0  0  0  0  0  0  0  0
   -0.6150   -0.5766    1.9787 C   0  0  0  0  0  0  0  0  0  0  0  0
    0.1075   -1.4788    1.6563 O   0  0  0  0  0  0  0  0  0  0  0  0
   -1.9209   -0.8691    2.6995 C   0  0  0  0  0  0  0  0  0  0  0  0
    0.7075    1.7208   -0.3059 C   0  0  0  0  0  0  0  0  0  0  0  0
   -0.1701    0.8432   -1.1835 C   0  0  0  0  0  0  0  0  0  0  0  0
   -1.5540    0.9425   -1.0842 C   0  0  0  0  0  0  0  0  0  0  0  0
   -2.3610    0.1420   -1.8857 C   0  0  0  0  0  0  0  0  0  0  0  0
   -1.7726   -0.7486   -2.7781 C   0  0  0  0  0  0  0  0  0  0  0  0
   -2.5520   -1.5276   -3.5577 O   0  0  0  0  0  0  0  0  0  0  0  0
   -0.3891   -0.8520   -2.8811 C   0  0  0  0  0  0  0  0  0  0  0  0
    0.4131   -0.0489   -2.0774 C   0  0  0  0  0  0  0  0  0  0  0  0
  1  2  2  0
  2  3  1  0
  3  4  1  0
  4  5  1  0
  5  6  1  0
  6  7  1  0
  7  8  3  0
  6  9  1  0
  9  5  1  0
  5 10  1  0
 10  3  1  0
  2 11  1  0
 11 12  1  0
 12 13  1  0
 13 14  2  0
 13 15  1  0
 11 16  1  0
 16 17  1  0
 17 18  2  0
 18 19  1  0
 19 20  2  0
 20 21  1  0
 20 22  1  0
 22 23  2  0
 23 17  1  0
M  END
$$$$
s_22____2067946____59693
     RDKit          3D

 21 21  0  0  0  0  0  0  0  0999 V2000
    0.4000   -0.0392    1.0000 O   0  0  0  0  0  0  0  0  0  0  0  0
    1.0000    1.0000    1.0000 C   0  0  0  0  0  0  0  0  0  0  0  0
    2.3700    1.0000    1.0000 N   0  0  0  0  0  0  0  0  0  0  0  0
    3.1050   -0.2731    1.0000 C   0  0  0  0  0  0  0  0  0  0  0  0
    3.3583   -0.7118   -0.4331 C   0  0  0  0  0  0  0  0  0  0  0  0
    4.1183   -2.0282   -0.4331 C   0  0  0  0  0  0  0  0  0  0  0  0
    4.3550   -2.4381   -1.7719 O   0  0  0  0  0  0  0  0  0  0  0  0
    5.0650   -3.6679   -1.7719 C   0  0  0  0  0  0  0  0  0  0  0  0
    3.1050    2.2731    1.0000 C   0  0  0  0  0  0  0  0  0  0  0  0
    0.2400    2.3164    1.0000 C   0  0  0  0  0  0  0  0  0  0  0  0
   -1.2356    2.0495    1.2488 C   0  0  0  0  0  0  0  0  0  0  0  0
   -1.9078    3.3074    1.6048 N   0  0  0  0  0  0  0  0  0  0  0  0
   -2.5369    3.4290    2.8157 C   0  0  0  0  0  0  0  0  0  0  0  0
   -2.5392    2.5087    3.5858 O   0  0  0  0  0  0  0  0  0  0  0  0
   -3.2320    4.7297    3.1838 C   0  0  0  0  0  0  0  0  0  0  0  0
   -1.8663    1.4765   -0.0102 C   0  0  0  0  0  0  0  0  0  0  0  0
   -1.8028    2.1937   -1.2004 C   0  0  0  0  0  0  0  0  0  0  0  0
   -2.3819    1.6661   -2.3499 C   0  0  0  0  0  0  0  0  0  0  0  0
   -3.0174    0.4297   -2.3040 C   0  0  0  0  0  0  0  0  0  0  0  0
   -3.0743   -0.2780   -1.1097 C   0  0  0  0  0  0  0  0  0  0  0  0
   -2.4996    0.2390    0.0468 C   0  0  0  0  0  0  0  0  0  0  0  0
  1  2  2  0
  2  3  1  0
  3  4  1  0
  4  5  1  0
  5  6  1  0
  6  7  1  0
  7  8  1  0
  3  9  1  0
  2 10  1  0
 10 11  1  0
 11 12  1  0
 12 13  1  0
 13 14  2  0
 13 15  1  0
 11 16  1  0
 16 17  2  0
 17 18  1  0
 18 19  2  0
 19 20  1  0
 20 21  2  0
 21 16  1  0
M  END
$$$$
s_527a____1027272____17057110
     RDKit          3D

 26 26  0  0  0  0  0  0  0  0999 V2000
   -3.7850    1.0000    5.3260 S   0  0  0  0  0  0  0  0  0  0  0  0
   -3.3050    2.1758    6.0048 O   0  0  0  0  0  0  0  0  0  0  0  0
   -5.2250    1.0000    5.3260 O   0  0  0  0  0  0  0  0  0  0  0  0
   -3.1817    1.0000    3.6195 C   0  0  0  0  0  0  0  0  0  0  0  0
   -1.6617    1.0000    3.6195 C   0  0  0  0  0  0  0  0  0  0  0  0
   -1.1550    1.0000    2.1865 C   0  0  0  0  0  0  0  0  0  0  0  0
    0.3150    1.0000    2.1865 N   0  0  0  0  0  0  0  0  0  0  0  0
    1.0000    1.0000    1.0000 C   0  0  0  0  0  0  0  0  0  0  0  0
    0.4000    1.0000   -0.0392 O   0  0  0  0  0  0  0  0  0  0  0  0
    2.5200    1.0000    1.0000 C   0  0  0  0  0  0  0  0  0  0  0  0
    3.0100    1.0000   -0.3859 N   0  0  0  0  0  0  0  0  0  0  0  0
    3.7976   -0.0275   -0.8340 C   0  0  0  0  0  0  0  0  0  0  0  0
    4.0138   -0.9711   -0.1248 O   0  0  0  0  0  0  0  0  0  0  0  0
    4.3977    0.0277   -2.2295 C   0  0  0  0  0  0  0  0  0  0  0  0
    4.8450   -1.3646   -2.6441 C   0  0  0  0  0  0  0  0  0  0  0  0
    3.6531   -2.1413   -3.1792 C   0  0  0  0  0  0  0  0  0  0  0  0
    5.9057   -1.2544   -3.7273 C   0  0  0  0  0  0  0  0  0  0  0  0
    3.0267    2.2411    1.7165 C   0  0  0  0  0  0  0  0  0  0  0  0
    4.5467    2.2411    1.7165 C   0  0  0  0  0  0  0  0  0  0  0  0
    5.2311    1.6356    2.7653 C   0  0  0  0  0  0  0  0  0  0  0  0
    6.6219    1.6325    2.7691 C   0  0  0  0  0  0  0  0  0  0  0  0
    7.3116    2.2356    1.7220 C   0  0  0  0  0  0  0  0  0  0  0  0
    8.6614    2.2352    1.7220 O   0  0  0  0  0  0  0  0  0  0  0  0
    6.6320    2.8428    0.6710 C   0  0  0  0  0  0  0  0  0  0  0  0
    5.2412    2.8426    0.6720 C   0  0  0  0  0  0  0  0  0  0  0  0
   -3.1817   -0.4779    6.1793 C   0  0  0  0  0  0  0  0  0  0  0  0
  1  2  2  0
  1  3  2  0
  1  4  1  0
  4  5  1  0
  5  6  1  0
  6  7  1  0
  7  8  1  0
  8  9  2  0
  8 10  1  0
 10 11  1  0
 11 12  1  0
 12 13  2  0
 12 14  1  0
 14 15  1  0
 15 16  1  0
 15 17  1  0
 10 18  1  0
 18 19  1  0
 19 20  2  0
 20 21  1  0
 21 22  2  0
 22 23  1  0
 22 24  1  0
 24 25  2  0
 25 19  1  0
  1 26  1  0
M  END
$$$$
m_272310____14933206____12218986
     RDKit          3D

 23 23  0  0  0  0  0  0  0  0999 V2000
    5.2105   -1.4690    4.4586 F   0  0  0  0  0  0  0  0  0  0  0  0
    4.8629   -1.5230    3.1759 C   0  0  0  0  0  0  0  0  0  0  0  0
    3.6265   -2.0018    3.0715 F   0  0  0  0  0  0  0  0  0  0  0  0
    4.9181   -0.1271    2.5768 C   0  0  0  0  0  0  0  0  0  0  0  0
    4.5208   -0.1889    1.1110 C   0  0  0  0  0  0  0  0  0  0  0  0
    3.0550   -0.1865    1.0000 N   0  0  0  0  0  0  0  0  0  0  0  0
    2.3700    1.0000    1.0000 C   0  0  0  0  0  0  0  0  0  0  0  0
    2.9700    2.0392    1.0000 O   0  0  0  0  0  0  0  0  0  0  0  0
    1.0000    1.0000    1.0000 N   0  0  0  0  0  0  0  0  0  0  0  0
    0.2650    2.2731    1.0000 C   0  0  0  0  0  0  0  0  0  0  0  0
   -0.6089    2.3536    2.2411 C   0  0  0  0  0  0  0  0  0  0  0  0
   -1.0100    3.4269    2.6300 O   0  0  0  0  0  0  0  0  0  0  0  0
   -0.9132    1.3110    2.8599 O   0  0  0  0  0  0  0  0  0  0  0  0
   -0.6089    2.3536   -0.2411 C   0  0  0  0  0  0  0  0  0  0  0  0
    0.2647    2.2731   -1.4817 C   0  0  0  0  0  0  0  0  0  0  0  0
    0.5409    1.0260   -2.0325 C   0  0  0  0  0  0  0  0  0  0  0  0
    1.3398    0.9545   -3.1684 C   0  0  0  0  0  0  0  0  0  0  0  0
    1.6213   -0.2453   -3.7185 O   0  0  0  0  0  0  0  0  0  0  0  0
    2.4369   -0.3208   -4.8784 C   0  0  0  0  0  0  0  0  0  0  0  0
    1.8549    2.1114   -3.7442 C   0  0  0  0  0  0  0  0  0  0  0  0
    1.5724    3.3531   -3.1832 C   0  0  0  0  0  0  0  0  0  0  0  0
    0.7736    3.4377   -2.0476 C   0  0  0  0  0  0  0  0  0  0  0  0
    6.3311    0.4200    2.6962 C   0  0  0  0  0  0  0  0  0  0  0  0
  1  2  1  0
  2  3  1  0
  2  4  1  0
  4  5  1  0
  5  6  1  0
  6  7  1  0
  7  8  2  0
  7  9  1  0
  9 10  1  0
 10 11  1  0
 11 12  1  0
 11 13  2  0
 10 14  1  0
 14 15  1  0
 15 16  2  0
 16 17  1  0
 17 18  1  0
 18 19  1  0
 17 20  2  0
 20 21  1  0
 21 22  2  0
 22 15  1  0
  4 23  1  0
M  CHG  1  12  -1
M  END
$$$$
s_527a____7659380____12624300
     RDKit          3D

 20 20  0  0  0  0  0  0  0  0999 V2000
    8.3418    0.3852    2.2810 Br  0  0  0  0  0  0  0  0  0  0  0  0
    6.8764    0.2368    0.9881 C   0  0  0  0  0  0  0  0  0  0  0  0
    5.5791    0.0220    1.4403 C   0  0  0  0  0  0  0  0  0  0  0  0
    4.5498   -0.0818    0.5098 C   0  0  0  0  0  0  0  0  0  0  0  0
    4.8033    0.0260   -0.8534 C   0  0  0  0  0  0  0  0  0  0  0  0
    6.1084    0.2402   -1.2841 C   0  0  0  0  0  0  0  0  0  0  0  0
    7.1519    0.3471   -0.3707 C   0  0  0  0  0  0  0  0  0  0  0  0
    3.1300   -0.3164    1.0000 C   0  0  0  0  0  0  0  0  0  0  0  0
    2.4556   -1.2716    0.1091 N   0  0  0  0  0  0  0  0  0  0  0  0
    1.9801   -2.4555    0.6082 C   0  0  0  0  0  0  0  0  0  0  0  0
    2.1143   -2.7128    1.7726 O   0  0  0  0  0  0  0  0  0  0  0  0
    1.2827   -3.4432   -0.3129 C   0  0  0  0  0  0  0  0  0  0  0  0
    2.3700    1.0000    1.0000 C   0  0  0  0  0  0  0  0  0  0  0  0
    2.9700    2.0392    1.0000 O   0  0  0  0  0  0  0  0  0  0  0  0
    1.0000    1.0000    1.0000 N   0  0  0  0  0  0  0  0  0  0  0  0
    0.2850    2.2384    1.0000 O   0  0  0  0  0  0  0  0  0  0  0  0
   -0.3482    2.4194   -0.2580 C   0  0  0  0  0  0  0  0  0  0  0  0
   -1.1082    3.7357   -0.2580 C   0  0  0  0  0  0  0  0  0  0  0  0
   -1.7860    3.9295   -1.6047 C   0  0  0  0  0  0  0  0  0  0  0  0
   -2.1593    3.7140    0.8397 C   0  0  0  0  0  0  0  0  0  0  0  0
  1  2  1  0
  2  3  2  0
  3  4  1  0
  4  5  2  0
  5  6  1  0
  6  7  2  0
  7  2  1  0
  4  8  1  0
  8  9  1  0
  9 10  1  0
 10 11  2  0
 10 12  1  0
  8 13  1  0
 13 14  2  0
 13 15  1  0
 15 16  1  0
 16 17  1  0
 17 18  1  0
 18 19  1  0
 18 20  1  0
M  END
$$$$
s_2430a____12875778____7689188
     RDKit          3D

 25 25  0  0  0  0  0  0  0  0999 V2000
    7.4652    2.2441    3.3346 F   0  0  0  0  0  0  0  0  0  0  0  0
    6.2668    2.6746    2.9507 C   0  0  0  0  0  0  0  0  0  0  0  0
    6.2188    2.7263    1.6226 F   0  0  0  0  0  0  0  0  0  0  0  0
    5.1986    1.7204    3.4595 C   0  0  0  0  0  0  0  0  0  0  0  0
    3.8741    2.1962    3.0352 N   0  0  0  0  0  0  0  0  0  0  0  0
    3.0831    1.4052    2.2442 C   0  0  0  0  0  0  0  0  0  0  0  0
    3.4716    0.3240    1.8978 O   0  0  0  0  0  0  0  0  0  0  0  0
    1.8487    1.8487    1.8487 N   0  0  0  0  0  0  0  0  0  0  0  0
    1.0000    1.0000    1.0000 C   0  0  0  0  0  0  0  0  0  0  0  0
    0.7075    1.7208   -0.3059 C   0  0  0  0  0  0  0  0  0  0  0  0
   -0.3868    1.6571   -0.7943 O   0  0  0  0  0  0  0  0  0  0  0  0
    1.6931    2.4433   -0.9252 N   0  0  0  0  0  0  0  0  0  0  0  0
    1.4102    3.1404   -2.1881 C   0  0  0  0  0  0  0  0  0  0  0  0
    0.6894    4.4462   -1.8956 C   0  0  0  0  0  0  0  0  0  0  0  0
    0.4161    5.1196   -3.1155 O   0  0  0  0  0  0  0  0  0  0  0  0
   -0.2573    6.3395   -2.8422 C   0  0  0  0  0  0  0  0  0  0  0  0
   -0.3059    0.7075    1.7208 C   0  0  0  0  0  0  0  0  0  0  0  0
   -0.0133   -0.0135    3.0269 C   0  0  0  0  0  0  0  0  0  0  0  0
    0.1956    0.7227    4.1885 C   0  0  0  0  0  0  0  0  0  0  0  0
    0.4639    0.0591    5.3813 C   0  0  0  0  0  0  0  0  0  0  0  0
    0.5203   -1.3305    5.4067 C   0  0  0  0  0  0  0  0  0  0  0  0
    0.3095   -2.0555    4.2404 C   0  0  0  0  0  0  0  0  0  0  0  0
    0.0410   -1.4036    3.0412 C   0  0  0  0  0  0  0  0  0  0  0  0
    5.2534    1.6613    4.9774 C   0  0  0  0  0  0  0  0  0  0  0  0
    4.1853    0.7070    5.4862 C   0  0  0  0  0  0  0  0  0  0  0  0
  1  2  1  0
  2  3  1  0
  2  4  1  0
  4  5  1  0
  5  6  1  0
  6  7  2  0
  6  8  1  0
  8  9  1  0
  9 10  1  0
 10 11  2  0
 10 12  1  0
 12 13  1  0
 13 14  1  0
 14 15  1  0
 15 16  1  0
  9 17  1  0
 17 18  1  0
 18 19  2  0
 19 20  1  0
 20 21  2  0
 21 22  1  0
 22 23  2  0
 23 18  1  0
  4 24  1  0
 24 25  1  0
M  END
$$$$
s_11a____8685750____5637260
     RDKit          3D

 22 22  0  0  0  0  0  0  0  0999 V2000
   -2.9968   -0.0894    1.5493 F   0  0  0  0  0  0  0  0  0  0  0  0
   -2.8808    0.5179    0.3718 C   0  0  0  0  0  0  0  0  0  0  0  0
   -2.0095    1.5940    0.2379 C   0  0  0  0  0  0  0  0  0  0  0  0
   -1.8718    2.2441   -0.9839 C   0  0  0  0  0  0  0  0  0  0  0  0
   -2.6165    1.8055   -2.0746 C   0  0  0  0  0  0  0  0  0  0  0  0
   -3.4861    0.7291   -1.9349 C   0  0  0  0  0  0  0  0  0  0  0  0
   -4.1968    0.3116   -2.9777 F   0  0  0  0  0  0  0  0  0  0  0  0
   -3.6276    0.0763   -0.7153 C   0  0  0  0  0  0  0  0  0  0  0  0
   -1.1970    2.0718    1.4309 C   0  0  0  0  0  0  0  0  0  0  0  0
   -1.7732    3.3217    1.9473 N   0  0  0  0  0  0  0  0  0  0  0  0
   -2.2300    3.3837    3.2374 C   0  0  0  0  0  0  0  0  0  0  0  0
   -2.1597    2.4177    3.9459 O   0  0  0  0  0  0  0  0  0  0  0  0
   -2.8258    4.6761    3.7714 C   0  0  0  0  0  0  0  0  0  0  0  0
    0.2400    2.3164    1.0000 C   0  0  0  0  0  0  0  0  0  0  0  0
    1.0000    1.0000    1.0000 C   0  0  0  0  0  0  0  0  0  0  0  0
    0.4000   -0.0392    1.0000 O   0  0  0  0  0  0  0  0  0  0  0  0
    2.3700    1.0000    1.0000 N   0  0  0  0  0  0  0  0  0  0  0  0
    3.1050   -0.2731    1.0000 C   0  0  0  0  0  0  0  0  0  0  0  0
    3.1428   -0.8363   -0.4113 C   0  0  0  0  0  0  0  0  0  0  0  0
    3.9028   -2.1526   -0.4113 C   0  0  0  0  0  0  0  0  0  0  0  0
    3.9406   -2.7158   -1.8226 C   0  0  0  0  0  0  0  0  0  0  0  0
    3.9690   -3.1382   -2.8811 N   0  0  0  0  0  0  0  0  0  0  0  0
  1  2  1  0
  2  3  2  0
  3  4  1  0
  4  5  2  0
  5  6  1  0
  6  7  1  0
  6  8  2  0
  8  2  1  0
  3  9  1  0
  9 10  1  0
 10 11  1  0
 11 12  2  0
 11 13  1  0
  9 14  1  0
 14 15  1  0
 15 16  2  0
 15 17  1  0
 17 18  1  0
 18 19  1  0
 19 20  1  0
 20 21  1  0
 21 22  3  0
M  END
$$$$
s_527a____14048834____17057110
     RDKit          3D

 26 28  0  0  0  0  0  0  0  0999 V2000
    3.1767    1.0994   -1.2506 O   0  0  0  0  0  0  0  0  0  0  0  0
    2.9767    1.7165   -0.2411 C   0  0  0  0  0  0  0  0  0  0  0  0
    3.2050    3.0669   -0.2071 N   0  0  0  0  0  0  0  0  0  0  0  0
    3.6947    3.7594   -1.4066 C   0  0  0  0  0  0  0  0  0  0  0  0
    2.5810    4.2627   -2.2783 C   0  0  0  0  0  0  0  0  0  0  0  0
    3.3248    5.2134   -1.3921 C   0  0  0  0  0  0  0  0  0  0  0  0
    3.9564    6.2554   -2.2939 C   0  0  0  0  0  0  0  0  0  0  0  0
    4.0869    5.5482   -3.6230 C   0  0  0  0  0  0  0  0  0  0  0  0
    2.7745    4.7946   -3.6856 C   0  0  0  0  0  0  0  0  0  0  0  0
    2.9600    3.8230    1.0295 C   0  0  0  0  0  0  0  0  0  0  0  0
    2.4700    1.0000    1.0000 C   0  0  0  0  0  0  0  0  0  0  0  0
    1.0000    1.0000    1.0000 N   0  0  0  0  0  0  0  0  0  0  0  0
    0.3150    1.0000    2.1865 C   0  0  0  0  0  0  0  0  0  0  0  0
    0.9150    1.0000    3.2257 O   0  0  0  0  0  0  0  0  0  0  0  0
   -1.2050    1.0000    2.1865 C   0  0  0  0  0  0  0  0  0  0  0  0
   -1.7117   -0.4331    2.1865 C   0  0  0  0  0  0  0  0  0  0  0  0
   -3.2317   -0.4331    2.1865 C   0  0  0  0  0  0  0  0  0  0  0  0
   -1.2050   -1.1496    0.9454 C   0  0  0  0  0  0  0  0  0  0  0  0
    2.9767   -0.4331    1.0000 C   0  0  0  0  0  0  0  0  0  0  0  0
    4.4967   -0.4331    1.0000 C   0  0  0  0  0  0  0  0  0  0  0  0
    5.1811   -0.4331    2.2110 C   0  0  0  0  0  0  0  0  0  0  0  0
    6.5719   -0.4338    2.2159 C   0  0  0  0  0  0  0  0  0  0  0  0
    7.2616   -0.4351    1.0075 C   0  0  0  0  0  0  0  0  0  0  0  0
    8.6816   -0.4355    1.0077 O   0  0  0  0  0  0  0  0  0  0  0  0
    6.5820   -0.4347   -0.2063 C   0  0  0  0  0  0  0  0  0  0  0  0
    5.1912   -0.4344   -0.2053 C   0  0  0  0  0  0  0  0  0  0  0  0
  1  2  2  0
  2  3  1  0
  3  4  1  0
  4  5  1  0
  5  6  1  0
  6  4  1  0
  6  7  1  0
  7  8  1  0
  8  9  1  0
  9  5  1  0
  3 10  1  0
  2 11  1  0
 11 12  1  0
 12 13  1  0
 13 14  2  0
 13 15  1  0
 15 16  1  0
 16 17  1  0
 16 18  1  0
 11 19  1  0
 19 20  1  0
 20 21  2  0
 21 22  1  0
 22 23  2  0
 23 24  1  0
 23 25  1  0
 25 26  2  0
 26 20  1  0
M  END
$$$$
s_2708____9434212____10739996
     RDKit          3D

 22 22  0  0  0  0  0  0  0  0999 V2000
    6.6000   -0.6007    5.9456 Cl  0  0  0  0  0  0  0  0  0  0  0  0
    5.5733   -0.5035    4.4950 C   0  0  0  0  0  0  0  0  0  0  0  0
    4.2298   -0.1678    4.6198 C   0  0  0  0  0  0  0  0  0  0  0  0
    3.4235   -0.0914    3.4886 C   0  0  0  0  0  0  0  0  0  0  0  0
    3.9785   -0.3535    2.2406 C   0  0  0  0  0  0  0  0  0  0  0  0
    5.3219   -0.6895    2.1153 C   0  0  0  0  0  0  0  0  0  0  0  0
    6.1283   -0.7660    3.2467 C   0  0  0  0  0  0  0  0  0  0  0  0
    3.1050   -0.2731    1.0000 C   0  0  0  0  0  0  0  0  0  0  0  0
    2.3700    1.0000    1.0000 N   0  0  0  0  0  0  0  0  0  0  0  0
    1.0000    1.0000    1.0000 C   0  0  0  0  0  0  0  0  0  0  0  0
    0.4000   -0.0392    1.0000 O   0  0  0  0  0  0  0  0  0  0  0  0
    0.3150    2.1865    1.0000 N   0  0  0  0  0  0  0  0  0  0  0  0
   -1.1550    2.1865    1.0000 C   0  0  0  0  0  0  0  0  0  0  0  0
   -1.6617    1.9376    2.4113 C   0  0  0  0  0  0  0  0  0  0  0  0
   -1.1883    0.6796    2.8692 O   0  0  0  0  0  0  0  0  0  0  0  0
   -1.6617    0.4471    4.1876 C   0  0  0  0  0  0  0  0  0  0  0  0
   -3.1817    1.9376    2.4113 C   0  0  0  0  0  0  0  0  0  0  0  0
   -3.6883    3.2842    1.9212 C   0  0  0  0  0  0  0  0  0  0  0  0
   -1.1550    3.0354    3.3325 C   0  0  0  0  0  0  0  0  0  0  0  0
    3.9789   -0.3536   -0.2411 C   0  0  0  0  0  0  0  0  0  0  0  0
    3.1625   -0.2784   -1.4005 O   0  0  0  0  0  0  0  0  0  0  0  0
    2.7675   -1.5864   -1.7870 C   0  0  0  0  0  0  0  0  0  0  0  0
  1  2  1  0
  2  3  2  0
  3  4  1  0
  4  5  2  0
  5  6  1  0
  6  7  2  0
  7  2  1  0
  5  8  1  0
  8  9  1  0
  9 10  1  0
 10 11  2  0
 10 12  1  0
 12 13  1  0
 13 14  1  0
 14 15  1  0
 15 16  1  0
 14 17  1  0
 17 18  1  0
 14 19  1  0
  8 20  1  0
 20 21  1  0
 21 22  1  0
M  END
$$$$
s_22____9044506____17513450
     RDKit          3D

 24 25  0  0  0  0  0  0  0  0999 V2000
    0.4000    1.0000   -0.0392 O   0  0  0  0  0  0  0  0  0  0  0  0
    1.0000    1.0000    1.0000 C   0  0  0  0  0  0  0  0  0  0  0  0
    0.3150    1.0000    2.1865 N   0  0  0  0  0  0  0  0  0  0  0  0
   -1.1555    1.0000    2.1865 C   0  0  0  0  0  0  0  0  0  0  0  0
   -1.7202    2.2151    2.8880 C   0  0  0  0  0  0  0  0  0  0  0  0
   -1.6146    3.3688    1.9837 N   0  0  0  0  0  0  0  0  0  0  0  0
   -2.3767    3.1002    0.7557 C   0  0  0  0  0  0  0  0  0  0  0  0
   -2.1586    4.5626    2.6468 C   0  0  0  0  0  0  0  0  0  0  0  0
   -3.1727    1.8364    3.0912 C   0  0  0  0  0  0  0  0  0  0  0  0
   -3.1757    0.3277    3.2450 C   0  0  0  0  0  0  0  0  0  0  0  0
   -1.7301   -0.0958    3.0507 C   0  0  0  0  0  0  0  0  0  0  0  0
    2.5200    1.0000    1.0000 C   0  0  0  0  0  0  0  0  0  0  0  0
    3.0100    1.0000   -0.3859 N   0  0  0  0  0  0  0  0  0  0  0  0
    3.7976    2.0275   -0.8340 C   0  0  0  0  0  0  0  0  0  0  0  0
    4.0875    2.9275   -0.0951 O   0  0  0  0  0  0  0  0  0  0  0  0
    4.3043    2.0275   -2.2671 C   0  0  0  0  0  0  0  0  0  0  0  0
    3.0267   -0.2411    1.7165 C   0  0  0  0  0  0  0  0  0  0  0  0
    4.5467   -0.2411    1.7165 C   0  0  0  0  0  0  0  0  0  0  0  0
    5.2311    0.3644    2.7653 C   0  0  0  0  0  0  0  0  0  0  0  0
    6.6219    0.3662    2.7699 C   0  0  0  0  0  0  0  0  0  0  0  0
    7.3116   -0.2391    1.7241 C   0  0  0  0  0  0  0  0  0  0  0  0
    8.6614   -0.2393    1.7244 O   0  0  0  0  0  0  0  0  0  0  0  0
    6.6320   -0.8457    0.6727 C   0  0  0  0  0  0  0  0  0  0  0  0
    5.2412   -0.8449    0.6734 C   0  0  0  0  0  0  0  0  0  0  0  0
  1  2  2  0
  2  3  1  0
  3  4  1  0
  4  5  1  0
  5  6  1  0
  6  7  1  0
  6  8  1  0
  5  9  1  0
  9 10  1  0
 10 11  1  0
 11  4  1  0
  2 12  1  0
 12 13  1  0
 13 14  1  0
 14 15  2  0
 14 16  1  0
 12 17  1  0
 17 18  1  0
 18 19  2  0
 19 20  1  0
 20 21  2  0
 21 22  1  0
 21 23  1  0
 23 24  2  0
 24 18  1  0
M  CHG  1   6   1
M  END
$$$$
s_22____15425608____17513450
     RDKit          3D

 26 28  0  0  0  0  0  0  0  0999 V2000
    3.0596    1.6786    1.9338 O   0  0  0  0  0  0  0  0  0  0  0  0
    1.8776    1.8776    1.8776 C   0  0  0  0  0  0  0  0  0  0  0  0
    1.3190    2.8957    2.6044 N   0  0  0  0  0  0  0  0  0  0  0  0
    2.1691    3.7458    3.4545 C   0  0  0  0  0  0  0  0  0  0  0  0
    1.7487    3.6723    4.9114 C   0  0  0  0  0  0  0  0  0  0  0  0
    1.4341    5.0649    5.2645 N   0  0  0  0  0  0  0  0  0  0  0  0
    2.1983    5.9596    4.3833 C   0  0  0  0  0  0  0  0  0  0  0  0
    2.0272    5.2058    3.0684 C   0  0  0  0  0  0  0  0  0  0  0  0
    3.6317    6.2365    4.8096 C   0  0  0  0  0  0  0  0  0  0  0  0
    4.0999    7.4817    4.0767 C   0  0  0  0  0  0  0  0  0  0  0  0
    2.8258    8.2259    3.7434 C   0  0  0  0  0  0  0  0  0  0  0  0
    1.6958    7.3974    4.3230 C   0  0  0  0  0  0  0  0  0  0  0  0
    1.7344    5.2500    6.6951 C   0  0  0  0  0  0  0  0  0  0  0  0
    1.0000    1.0000    1.0000 C   0  0  0  0  0  0  0  0  0  0  0  0
   -0.2629    0.7171    1.6971 N   0  0  0  0  0  0  0  0  0  0  0  0
   -0.6150   -0.5766    1.9787 C   0  0  0  0  0  0  0  0  0  0  0  0
    0.1075   -1.4788    1.6563 O   0  0  0  0  0  0  0  0  0  0  0  0
   -1.9209   -0.8691    2.6995 C   0  0  0  0  0  0  0  0  0  0  0  0
    0.7075    1.7208   -0.3059 C   0  0  0  0  0  0  0  0  0  0  0  0
   -0.1701    0.8432   -1.1835 C   0  0  0  0  0  0  0  0  0  0  0  0
   -1.5540    0.9425   -1.0842 C   0  0  0  0  0  0  0  0  0  0  0  0
   -2.3610    0.1420   -1.8857 C   0  0  0  0  0  0  0  0  0  0  0  0
   -1.7726   -0.7486   -2.7781 C   0  0  0  0  0  0  0  0  0  0  0  0
   -2.5520   -1.5276   -3.5577 O   0  0  0  0  0  0  0  0  0  0  0  0
   -0.3891   -0.8520   -2.8811 C   0  0  0  0  0  0  0  0  0  0  0  0
    0.4131   -0.0489   -2.0774 C   0  0  0  0  0  0  0  0  0  0  0  0
  1  2  2  0
  2  3  1  0
  3  4  1  0
  4  5  1  0
  5  6  1  0
  6  7  1  0
  7  8  1  0
  8  4  1  0
  7  9  1  0
  9 10  1  0
 10 11  1  0
 11 12  1  0
 12  7  1  0
  6 13  1  0
  2 14  1  0
 14 15  1  0
 15 16  1  0
 16 17  2  0
 16 18  1  0
 14 19  1  0
 19 20  1  0
 20 21  2  0
 21 22  1  0
 22 23  2  0
 23 24  1  0
 23 25  1  0
 25 26  2  0
 26 20  1  0
M  CHG  1   6   1
M  END
$$$$
s_240690a____16508828____17513472
     RDKit          3D

 24 25  0  0  0  0  0  0  0  0999 V2000
    0.4000   -0.0392    1.0000 O   0  0  0  0  0  0  0  0  0  0  0  0
    1.0000    1.0000    1.0000 C   0  0  0  0  0  0  0  0  0  0  0  0
    2.3700    1.0000    1.0000 N   0  0  0  0  0  0  0  0  0  0  0  0
    3.1050   -0.2731    1.0000 C   0  0  0  0  0  0  0  0  0  0  0  0
    4.6039    0.0055    1.0000 C   0  0  0  0  0  0  0  0  0  0  0  0
    5.0095    0.7486   -0.1371 O   0  0  0  0  0  0  0  0  0  0  0  0
    5.1722    0.5653    2.2916 C   0  0  0  0  0  0  0  0  0  0  0  0
    5.3585   -0.8718    2.7399 C   0  0  0  0  0  0  0  0  0  0  0  0
    6.6563   -1.0600    3.5100 C   0  0  0  0  0  0  0  0  0  0  0  0
    6.7842   -2.4664    3.9184 N   0  0  0  0  0  0  0  0  0  0  0  0
    5.4878   -1.1945    1.2651 C   0  0  0  0  0  0  0  0  0  0  0  0
    0.2400    2.3164    1.0000 C   0  0  0  0  0  0  0  0  0  0  0  0
   -1.2052    2.0477    1.0000 N   0  0  0  0  0  0  0  0  0  0  0  0
   -1.9871    2.5058    2.0275 C   0  0  0  0  0  0  0  0  0  0  0  0
   -1.4922    3.1263    2.9275 O   0  0  0  0  0  0  0  0  0  0  0  0
   -3.4815    2.2281    2.0275 C   0  0  0  0  0  0  0  0  0  0  0  0
    0.6072    3.1134   -0.2411 C   0  0  0  0  0  0  0  0  0  0  0  0
   -0.1528    4.4298   -0.2411 C   0  0  0  0  0  0  0  0  0  0  0  0
    0.4132    5.5469    0.3644 C   0  0  0  0  0  0  0  0  0  0  0  0
   -0.2782    6.7537    0.3662 C   0  0  0  0  0  0  0  0  0  0  0  0
   -1.5287    6.8280   -0.2391 C   0  0  0  0  0  0  0  0  0  0  0  0
   -2.2034    7.9972   -0.2393 O   0  0  0  0  0  0  0  0  0  0  0  0
   -2.0995    5.7138   -0.8457 C   0  0  0  0  0  0  0  0  0  0  0  0
   -1.4035    4.5097   -0.8449 C   0  0  0  0  0  0  0  0  0  0  0  0
  1  2  2  0
  2  3  1  0
  3  4  1  0
  4  5  1  0
  5  6  1  0
  5  7  1  0
  7  8  1  0
  8  9  1  0
  9 10  1  0
  8 11  1  0
 11  5  1  0
  2 12  1  0
 12 13  1  0
 13 14  1  0
 14 15  2  0
 14 16  1  0
 12 17  1  0
 17 18  1  0
 18 19  2  0
 19 20  1  0
 20 21  2  0
 21 22  1  0
 21 23  1  0
 23 24  2  0
 24 18  1  0
M  CHG  1  10   1
M  END
$$$$
s_22____10547740____17513450
     RDKit          3D

 23 24  0  0  0  0  0  0  0  0999 V2000
    0.4000   -0.0392    1.0000 O   0  0  0  0  0  0  0  0  0  0  0  0
    1.0000    1.0000    1.0000 C   0  0  0  0  0  0  0  0  0  0  0  0
    2.3700    1.0000    1.0000 N   0  0  0  0  0  0  0  0  0  0  0  0
    3.1050   -0.2731    1.0000 C   0  0  0  0  0  0  0  0  0  0  0  0
    3.1428   -0.8363   -0.4113 C   0  0  0  0  0  0  0  0  0  0  0  0
    3.7943    0.0864   -1.2719 O   0  0  0  0  0  0  0  0  0  0  0  0
    3.8297   -0.4397   -2.5903 C   0  0  0  0  0  0  0  0  0  0  0  0
    3.9031   -2.1532   -0.4113 C   0  0  0  0  0  0  0  0  0  0  0  0
    3.2422   -3.1553    0.4894 C   0  0  0  0  0  0  0  0  0  0  0  0
    4.5037   -2.4687    0.9284 C   0  0  0  0  0  0  0  0  0  0  0  0
    0.2400    2.3164    1.0000 C   0  0  0  0  0  0  0  0  0  0  0  0
   -1.2052    2.0477    1.0000 N   0  0  0  0  0  0  0  0  0  0  0  0
   -1.9871    2.5058    2.0275 C   0  0  0  0  0  0  0  0  0  0  0  0
   -1.4922    3.1263    2.9275 O   0  0  0  0  0  0  0  0  0  0  0  0
   -3.4815    2.2281    2.0275 C   0  0  0  0  0  0  0  0  0  0  0  0
    0.6072    3.1134   -0.2411 C   0  0  0  0  0  0  0  0  0  0  0  0
   -0.1528    4.4298   -0.2411 C   0  0  0  0  0  0  0  0  0  0  0  0
    0.4132    5.5469    0.3644 C   0  0  0  0  0  0  0  0  0  0  0  0
   -0.2782    6.7537    0.3662 C   0  0  0  0  0  0  0  0  0  0  0  0
   -1.5287    6.8280   -0.2391 C   0  0  0  0  0  0  0  0  0  0  0  0
   -2.2034    7.9972   -0.2393 O   0  0  0  0  0  0  0  0  0  0  0  0
   -2.0995    5.7138   -0.8457 C   0  0  0  0  0  0  0  0  0  0  0  0
   -1.4035    4.5097   -0.8449 C   0  0  0  0  0  0  0  0  0  0  0  0
  1  2  2  0
  2  3  1  0
  3  4  1  0
  4  5  1  0
  5  6  1  0
  6  7  1  0
  5  8  1  0
  8  9  1  0
  9 10  1  0
 10  8  1  0
  2 11  1  0
 11 12  1  0
 12 13  1  0
 13 14  2  0
 13 15  1  0
 11 16  1  0
 16 17  1  0
 17 18  2  0
 18 19  1  0
 19 20  2  0
 20 21  1  0
 20 22  1  0
 22 23  2  0
 23 17  1  0
M  END
$$$$
s_22____9609722____17513450
     RDKit          3D

 24 25  0  0  0  0  0  0  0  0999 V2000
    0.4000    1.0000   -0.0392 O   0  0  0  0  0  0  0  0  0  0  0  0
    1.0000    1.0000    1.0000 C   0  0  0  0  0  0  0  0  0  0  0  0
    0.3150    1.0000    2.1865 N   0  0  0  0  0  0  0  0  0  0  0  0
   -1.1550    1.0000    2.1865 C   0  0  0  0  0  0  0  0  0  0  0  0
   -1.6622    2.4128    1.9373 C   0  0  0  0  0  0  0  0  0  0  0  0
   -3.1626    2.5014    1.9217 C   0  0  0  0  0  0  0  0  0  0  0  0
   -2.3943    2.9679    3.1191 C   0  0  0  0  0  0  0  0  0  0  0  0
   -2.2498    4.4712    3.2998 C   0  0  0  0  0  0  0  0  0  0  0  0
   -2.4867    2.0948    4.3606 C   0  0  0  0  0  0  0  0  0  0  0  0
   -3.7296    3.5791    1.0114 C   0  0  0  0  0  0  0  0  0  0  0  0
   -3.9471    1.2097    2.0962 C   0  0  0  0  0  0  0  0  0  0  0  0
    2.5200    1.0000    1.0000 C   0  0  0  0  0  0  0  0  0  0  0  0
    3.0100    1.0000   -0.3859 N   0  0  0  0  0  0  0  0  0  0  0  0
    3.7976    2.0275   -0.8340 C   0  0  0  0  0  0  0  0  0  0  0  0
    4.0875    2.9275   -0.0951 O   0  0  0  0  0  0  0  0  0  0  0  0
    4.3043    2.0275   -2.2671 C   0  0  0  0  0  0  0  0  0  0  0  0
    3.0267   -0.2411    1.7165 C   0  0  0  0  0  0  0  0  0  0  0  0
    4.5467   -0.2411    1.7165 C   0  0  0  0  0  0  0  0  0  0  0  0
    5.2311    0.3644    2.7653 C   0  0  0  0  0  0  0  0  0  0  0  0
    6.6219    0.3662    2.7699 C   0  0  0  0  0  0  0  0  0  0  0  0
    7.3116   -0.2391    1.7241 C   0  0  0  0  0  0  0  0  0  0  0  0
    8.6614   -0.2393    1.7244 O   0  0  0  0  0  0  0  0  0  0  0  0
    6.6320   -0.8457    0.6727 C   0  0  0  0  0  0  0  0  0  0  0  0
    5.2412   -0.8449    0.6734 C   0  0  0  0  0  0  0  0  0  0  0  0
  1  2  2  0
  2  3  1  0
  3  4  1  0
  4  5  1  0
  5  6  1  0
  6  7  1  0
  7  5  1  0
  7  8  1  0
  7  9  1  0
  6 10  1  0
  6 11  1  0
  2 12  1  0
 12 13  1  0
 13 14  1  0
 14 15  2  0
 14 16  1  0
 12 17  1  0
 17 18  1  0
 18 19  2  0
 19 20  1  0
 20 21  2  0
 21 22  1  0
 21 23  1  0
 23 24  2  0
 24 18  1  0
M  END
$$$$
s_22____10741068____17512240
     RDKit          3D

 23 24  0  0  0  0  0  0  0  0999 V2000
    0.4000    1.0000   -0.0392 O   0  0  0  0  0  0  0  0  0  0  0  0
    1.0000    1.0000    1.0000 C   0  0  0  0  0  0  0  0  0  0  0  0
    0.3150    1.0000    2.1865 N   0  0  0  0  0  0  0  0  0  0  0  0
   -1.1550    1.0000    2.1865 C   0  0  0  0  0  0  0  0  0  0  0  0
   -1.6617    1.0000    3.6195 C   0  0  0  0  0  0  0  0  0  0  0  0
   -1.1538   -0.2439    4.3377 C   0  0  0  0  0  0  0  0  0  0  0  0
   -1.6251   -1.5213    3.6712 C   0  0  0  0  0  0  0  0  0  0  0  0
   -1.7526   -2.0968    5.0646 C   0  0  0  0  0  0  0  0  0  0  0  0
   -1.9860   -0.6704    5.5271 C   0  0  0  0  0  0  0  0  0  0  0  0
   -1.1550    2.2411    4.3361 C   0  0  0  0  0  0  0  0  0  0  0  0
   -3.1817    1.0000    3.6195 C   0  0  0  0  0  0  0  0  0  0  0  0
    2.5200    1.0000    1.0000 C   0  0  0  0  0  0  0  0  0  0  0  0
    3.0100    0.1091    2.0617 N   0  0  0  0  0  0  0  0  0  0  0  0
    3.7976    0.6082    3.0654 C   0  0  0  0  0  0  0  0  0  0  0  0
    4.0875    1.7726    3.0779 O   0  0  0  0  0  0  0  0  0  0  0  0
    4.3043   -0.3129    4.1632 C   0  0  0  0  0  0  0  0  0  0  0  0
    3.0267    0.5099   -0.3466 C   0  0  0  0  0  0  0  0  0  0  0  0
    4.5470    0.5099   -0.3466 C   0  0  0  0  0  0  0  0  0  0  0  0
    5.2360   -0.6256    0.0666 C   0  0  0  0  0  0  0  0  0  0  0  0
    6.6271   -0.6211    0.0659 C   0  0  0  0  0  0  0  0  0  0  0  0
    7.3187    0.5127   -0.3473 C   0  0  0  0  0  0  0  0  0  0  0  0
    6.6199    1.6411   -0.7585 C   0  0  0  0  0  0  0  0  0  0  0  0
    5.2289    1.6493   -0.7618 C   0  0  0  0  0  0  0  0  0  0  0  0
  1  2  2  0
  2  3  1  0
  3  4  1  0
  4  5  1  0
  5  6  1  0
  6  7  1  0
  7  8  1  0
  8  9  1  0
  9  6  1  0
  5 10  1  0
  5 11  1  0
  2 12  1  0
 12 13  1  0
 13 14  1  0
 14 15  2  0
 14 16  1  0
 12 17  1  0
 17 18  1  0
 18 19  2  0
 19 20  1  0
 20 21  2  0
 21 22  1  0
 22 23  2  0
 23 18  1  0
M  END
$$$$
s_22____13472478____17064022
     RDKit          3D

 25 26  0  0  0  0  0  0  0  0999 V2000
   -0.3868    1.6571   -0.7943 O   0  0  0  0  0  0  0  0  0  0  0  0
    0.7075    1.7208   -0.3059 C   0  0  0  0  0  0  0  0  0  0  0  0
    1.6931    2.4433   -0.9252 N   0  0  0  0  0  0  0  0  0  0  0  0
    1.4102    3.1404   -2.1881 C   0  0  0  0  0  0  0  0  0  0  0  0
    1.6455    4.6312   -2.0077 C   0  0  0  0  0  0  0  0  0  0  0  0
    1.3528    5.3523   -3.3141 C   0  0  0  0  0  0  0  0  0  0  0  0
    1.5749    6.8299   -3.1737 C   0  0  0  0  0  0  0  0  0  0  0  0
    0.1775    6.2806   -3.2060 C   0  0  0  0  0  0  0  0  0  0  0  0
    2.3295    2.6104   -3.2763 C   0  0  0  0  0  0  0  0  0  0  0  0
    1.0000    1.0000    1.0000 C   0  0  0  0  0  0  0  0  0  0  0  0
    1.8487    1.8487    1.8487 N   0  0  0  0  0  0  0  0  0  0  0  0
    3.0831    1.4052    2.2442 C   0  0  0  0  0  0  0  0  0  0  0  0
    3.4716    0.3240    1.8978 O   0  0  0  0  0  0  0  0  0  0  0  0
    3.9607    2.2828    3.1218 C   0  0  0  0  0  0  0  0  0  0  0  0
    3.2399    2.5753    4.4276 C   0  0  0  0  0  0  0  0  0  0  0  0
    4.1175    3.4529    5.3052 C   0  0  0  0  0  0  0  0  0  0  0  0
    5.2666    1.5620    3.4143 C   0  0  0  0  0  0  0  0  0  0  0  0
   -0.3059    0.7075    1.7208 C   0  0  0  0  0  0  0  0  0  0  0  0
   -0.0133   -0.0134    3.0267 C   0  0  0  0  0  0  0  0  0  0  0  0
    0.1949    0.7274    4.1855 C   0  0  0  0  0  0  0  0  0  0  0  0
    0.4621    0.0721    5.3829 C   0  0  0  0  0  0  0  0  0  0  0  0
    0.5173   -1.3180    5.4060 C   0  0  0  0  0  0  0  0  0  0  0  0
    0.7767   -1.9580    6.5658 O   0  0  0  0  0  0  0  0  0  0  0  0
    0.3102   -2.0634    4.2499 C   0  0  0  0  0  0  0  0  0  0  0  0
    0.0429   -1.4030    3.0554 C   0  0  0  0  0  0  0  0  0  0  0  0
  1  2  2  0
  2  3  1  0
  3  4  1  0
  4  5  1  0
  5  6  1  0
  6  7  1  0
  7  8  1  0
  8  6  1  0
  4  9  1  0
  2 10  1  0
 10 11  1  0
 11 12  1  0
 12 13  2  0
 12 14  1  0
 14 15  1  0
 15 16  1  0
 14 17  1  0
 10 18  1  0
 18 19  1  0
 19 20  2  0
 20 21  1  0
 21 22  2  0
 22 23  1  0
 22 24  1  0
 24 25  2  0
 25 19  1  0
M  END
$$$$
s_22____130461____14260948
     RDKit          3D

 27 28  0  0  0  0  0  0  0  0999 V2000
    0.4492    4.1141   -2.6949 F   0  0  0  0  0  0  0  0  0  0  0  0
   -0.0932    3.4080   -1.7074 C   0  0  0  0  0  0  0  0  0  0  0  0
    0.7114    2.6065   -0.9052 C   0  0  0  0  0  0  0  0  0  0  0  0
    0.1228    1.8772    0.1228 C   0  0  0  0  0  0  0  0  0  0  0  0
   -1.2474    1.9402    0.3557 C   0  0  0  0  0  0  0  0  0  0  0  0
   -2.0417    2.7466   -0.4530 C   0  0  0  0  0  0  0  0  0  0  0  0
   -1.4646    3.4799   -1.4853 C   0  0  0  0  0  0  0  0  0  0  0  0
    1.0000    1.0000    1.0000 C   0  0  0  0  0  0  0  0  0  0  0  0
    1.8487    0.1513    0.1513 N   0  0  0  0  0  0  0  0  0  0  0  0
    1.7598   -1.2129    0.2402 C   0  0  0  0  0  0  0  0  0  0  0  0
    0.9891   -1.7150    1.0109 O   0  0  0  0  0  0  0  0  0  0  0  0
    2.5162   -1.9693   -0.5162 O   0  0  0  0  0  0  0  0  0  0  0  0
    2.4240   -3.3833   -0.4240 C   0  0  0  0  0  0  0  0  0  0  0  0
    1.0090   -3.8221   -0.7642 C   0  0  0  0  0  0  0  0  0  0  0  0
    3.4002   -4.0193   -1.4002 C   0  0  0  0  0  0  0  0  0  0  0  0
    2.7642   -3.8221    0.9910 C   0  0  0  0  0  0  0  0  0  0  0  0
    1.8776    1.8776    1.8776 C   0  0  0  0  0  0  0  0  0  0  0  0
    1.0000    2.7551    2.7551 C   0  0  0  0  0  0  0  0  0  0  0  0
   -0.1949    2.6773    2.6773 O   0  0  0  0  0  0  0  0  0  0  0  0
    1.5733    3.6350    3.6350 N   0  0  0  0  0  0  0  0  0  0  0  0
    0.7229    4.4854    4.4854 C   0  0  0  0  0  0  0  0  0  0  0  0
    1.0072    5.9522    4.2010 C   0  0  0  0  0  0  0  0  0  0  0  0
    0.1421    6.8236    5.0976 C   0  0  0  0  0  0  0  0  0  0  0  0
    0.3841    6.5282    6.5179 N   0  0  0  0  0  0  0  0  0  0  0  0
    0.1424    5.1107    6.8265 C   0  0  0  0  0  0  0  0  0  0  0  0
    1.0075    4.2151    5.9541 C   0  0  0  0  0  0  0  0  0  0  0  0
   -0.4324    7.3942    7.3843 C   0  0  0  0  0  0  0  0  0  0  0  0
  1  2  1  0
  2  3  2  0
  3  4  1  0
  4  5  2  0
  5  6  1  0
  6  7  2  0
  7  2  1  0
  4  8  1  0
  8  9  1  0
  9 10  1  0
 10 11  2  0
 10 12  1  0
 12 13  1  0
 13 14  1  0
 13 15  1  0
 13 16  1  0
  8 17  1  0
 17 18  1  0
 18 19  2  0
 18 20  1  0
 20 21  1  0
 21 22  1  0
 22 23  1  0
 23 24  1  0
 24 25  1  0
 25 26  1  0
 26 21  1  0
 24 27  1  0
M  CHG  1  24   1
M  END
$$$$
s_2708____5730620____2680692
     RDKit          3D

 22 23  0  0  0  0  0  0  0  0999 V2000
    7.2338   -1.3514   -0.4332 F   0  0  0  0  0  0  0  0  0  0  0  0
    6.5686   -0.1994   -0.4329 C   0  0  0  0  0  0  0  0  0  0  0  0
    7.2752    0.9988   -0.4327 C   0  0  0  0  0  0  0  0  0  0  0  0
    6.5684    2.1967   -0.4326 C   0  0  0  0  0  0  0  0  0  0  0  0
    7.2366    3.3466   -0.4320 F   0  0  0  0  0  0  0  0  0  0  0  0
    5.1777    2.2121   -0.4328 C   0  0  0  0  0  0  0  0  0  0  0  0
    4.4961    1.0000   -0.4331 C   0  0  0  0  0  0  0  0  0  0  0  0
    5.1778   -0.2125   -0.4331 C   0  0  0  0  0  0  0  0  0  0  0  0
    2.9767    1.0000   -0.4331 C   0  0  0  0  0  0  0  0  0  0  0  0
    2.4700    1.0000    1.0000 C   0  0  0  0  0  0  0  0  0  0  0  0
    1.0000    1.0000    1.0000 N   0  0  0  0  0  0  0  0  0  0  0  0
    0.3150    1.0000    2.1865 C   0  0  0  0  0  0  0  0  0  0  0  0
    0.9150    1.0000    3.2257 O   0  0  0  0  0  0  0  0  0  0  0  0
   -1.0550    1.0000    2.1865 N   0  0  0  0  0  0  0  0  0  0  0  0
   -1.7913    1.0000    3.4617 C   0  0  0  0  0  0  0  0  0  0  0  0
   -2.6682    2.2383    3.5508 C   0  0  0  0  0  0  0  0  0  0  0  0
   -3.4430    2.2184    4.8585 C   0  0  0  0  0  0  0  0  0  0  0  0
   -4.2598    0.9989    4.9586 N   0  0  0  0  0  0  0  0  0  0  0  0
   -3.4418   -0.2190    4.8603 C   0  0  0  0  0  0  0  0  0  0  0  0
   -2.6698   -0.2376    3.5506 C   0  0  0  0  0  0  0  0  0  0  0  0
   -4.9837    0.9541    6.2377 C   0  0  0  0  0  0  0  0  0  0  0  0
   -4.3089    3.4667    4.9138 C   0  0  0  0  0  0  0  0  0  0  0  0
  1  2  1  0
  2  3  2  0
  3  4  1  0
  4  5  1  0
  4  6  2  0
  6  7  1  0
  7  8  2  0
  8  2  1  0
  7  9  1  0
  9 10  1  0
 10 11  1  0
 11 12  1  0
 12 13  2  0
 12 14  1  0
 14 15  1  0
 15 16  1  0
 16 17  1  0
 17 18  1  0
 18 19  1  0
 19 20  1  0
 20 15  1  0
 18 21  1  0
 17 22  1  0
M  CHG  1  18   1
M  END
$$$$
s_22____2335960____107333
     RDKit          3D

 25 27  0  0  0  0  0  0  0  0999 V2000
   -2.5978    4.6070   -2.6115 Br  0  0  0  0  0  0  0  0  0  0  0  0
   -1.4668    3.4748   -1.4799 C   0  0  0  0  0  0  0  0  0  0  0  0
   -0.2147    3.0763   -1.9366 C   0  0  0  0  0  0  0  0  0  0  0  0
    0.5834    2.2728   -1.1290 C   0  0  0  0  0  0  0  0  0  0  0  0
    0.1225    1.8775    0.1225 C   0  0  0  0  0  0  0  0  0  0  0  0
   -1.1309    2.2798    0.5731 C   0  0  0  0  0  0  0  0  0  0  0  0
   -1.9347    3.0832   -0.2292 C   0  0  0  0  0  0  0  0  0  0  0  0
    1.0000    1.0000    1.0000 C   0  0  0  0  0  0  0  0  0  0  0  0
    1.8487    0.1513    0.1513 N   0  0  0  0  0  0  0  0  0  0  0  0
    2.2442   -1.0831    0.5948 C   0  0  0  0  0  0  0  0  0  0  0  0
    1.8978   -1.4716    1.6760 O   0  0  0  0  0  0  0  0  0  0  0  0
    3.1218   -1.9607   -0.2828 C   0  0  0  0  0  0  0  0  0  0  0  0
    1.8776    1.8776    1.8776 C   0  0  0  0  0  0  0  0  0  0  0  0
    1.0000    2.7551    2.7551 C   0  0  0  0  0  0  0  0  0  0  0  0
    0.6536    3.8364    2.3667 O   0  0  0  0  0  0  0  0  0  0  0  0
    0.5958    2.3019    4.0169 N   0  0  0  0  0  0  0  0  0  0  0  0
   -0.2529    3.1418    4.8744 C   0  0  0  0  0  0  0  0  0  0  0  0
    0.1296    2.9545    6.3316 C   0  0  0  0  0  0  0  0  0  0  0  0
    1.5834    2.9896    6.5376 N   0  0  0  0  0  0  0  0  0  0  0  0
    2.2426    1.6729    6.5949 C   0  0  0  0  0  0  0  0  0  0  0  0
    2.3689    1.0252    5.2231 C   0  0  0  0  0  0  0  0  0  0  0  0
    1.0480    0.9737    4.4672 C   0  0  0  0  0  0  0  0  0  0  0  0
    1.7559    3.7015    7.8043 C   0  0  0  0  0  0  0  0  0  0  0  0
    0.7334    4.8057    7.6782 C   0  0  0  0  0  0  0  0  0  0  0  0
   -0.4855    4.0457    7.1906 C   0  0  0  0  0  0  0  0  0  0  0  0
  1  2  1  0
  2  3  2  0
  3  4  1  0
  4  5  2  0
  5  6  1  0
  6  7  2  0
  7  2  1  0
  5  8  1  0
  8  9  1  0
  9 10  1  0
 10 11  2  0
 10 12  1  0
  8 13  1  0
 13 14  1  0
 14 15  2  0
 14 16  1  0
 16 17  1  0
 17 18  1  0
 18 19  1  0
 19 20  1  0
 20 21  1  0
 21 22  1  0
 22 16  1  0
 19 23  1  0
 23 24  1  0
 24 25  1  0
 25 18  1  0
M  CHG  1  19   1
M  END
$$$$
s_22____4836848____5637262
     RDKit          3D

 26 27  0  0  0  0  0  0  0  0999 V2000
    0.4725    4.3755   -1.2122 F   0  0  0  0  0  0  0  0  0  0  0  0
   -0.6031    3.8538   -0.6294 C   0  0  0  0  0  0  0  0  0  0  0  0
   -0.5605    2.5464   -0.1561 C   0  0  0  0  0  0  0  0  0  0  0  0
   -1.6731    1.9801    0.4572 C   0  0  0  0  0  0  0  0  0  0  0  0
   -2.8327    2.7373    0.5932 C   0  0  0  0  0  0  0  0  0  0  0  0
   -2.8696    4.0439    0.1180 C   0  0  0  0  0  0  0  0  0  0  0  0
   -3.9781    4.7656    0.2486 F   0  0  0  0  0  0  0  0  0  0  0  0
   -1.7600    4.6141   -0.4962 C   0  0  0  0  0  0  0  0  0  0  0  0
    0.7075    1.7208   -0.3059 C   0  0  0  0  0  0  0  0  0  0  0  0
    0.5256    0.7340   -1.3802 N   0  0  0  0  0  0  0  0  0  0  0  0
    1.3520    0.7509   -2.4728 C   0  0  0  0  0  0  0  0  0  0  0  0
    2.2242    1.5711   -2.5528 O   0  0  0  0  0  0  0  0  0  0  0  0
    1.1640   -0.2695   -3.5836 C   0  0  0  0  0  0  0  0  0  0  0  0
    1.0000    1.0000    1.0000 C   0  0  0  0  0  0  0  0  0  0  0  0
    1.8776    1.8776    1.8776 C   0  0  0  0  0  0  0  0  0  0  0  0
    2.0766    3.0213    1.5740 O   0  0  0  0  0  0  0  0  0  0  0  0
    2.4526    1.3524    3.0379 N   0  0  0  0  0  0  0  0  0  0  0  0
    2.1828   -0.0552    3.3736 C   0  0  0  0  0  0  0  0  0  0  0  0
    2.1490   -0.2857    4.8782 C   0  0  0  0  0  0  0  0  0  0  0  0
    3.3124    0.3890    5.5912 C   0  0  0  0  0  0  0  0  0  0  0  0
    3.1330    0.1661    7.0844 C   0  0  0  0  0  0  0  0  0  0  0  0
    4.2398    0.8043    7.8116 N   0  0  0  0  0  0  0  0  0  0  0  0
    4.0663    0.5888    9.2553 C   0  0  0  0  0  0  0  0  0  0  0  0
    5.5150    0.2155    7.3780 C   0  0  0  0  0  0  0  0  0  0  0  0
    3.2051    1.8870    5.3431 C   0  0  0  0  0  0  0  0  0  0  0  0
    3.2927    2.2356    3.8636 C   0  0  0  0  0  0  0  0  0  0  0  0
  1  2  1  0
  2  3  2  0
  3  4  1  0
  4  5  2  0
  5  6  1  0
  6  7  1  0
  6  8  2  0
  8  2  1  0
  3  9  1  0
  9 10  1  0
 10 11  1  0
 11 12  2  0
 11 13  1  0
  9 14  1  0
 14 15  1  0
 15 16  2  0
 15 17  1  0
 17 18  1  0
 18 19  1  0
 19 20  1  0
 20 21  1  0
 21 22  1  0
 22 23  1  0
 22 24  1  0
 20 25  1  0
 25 26  1  0
 26 17  1  0
M  CHG  1  22   1
M  END
$$$$
s_22____5730600____999588
     RDKit          3D

 22 23  0  0  0  0  0  0  0  0999 V2000
    5.6624    4.8886    2.4837 O   0  0  0  0  0  0  0  0  0  0  0  0
    5.6830    3.6888    2.4782 C   0  0  0  0  0  0  0  0  0  0  0  0
    6.8811    3.0244    2.4643 N   0  0  0  0  0  0  0  0  0  0  0  0
    8.1434    3.7826    2.4561 C   0  0  0  0  0  0  0  0  0  0  0  0
    8.5985    4.0418    3.8830 C   0  0  0  0  0  0  0  0  0  0  0  0
    9.9141    4.8031    3.8656 C   0  0  0  0  0  0  0  0  0  0  0  0
   10.9388    4.0506    3.1255 N   0  0  0  0  0  0  0  0  0  0  0  0
   10.5222    3.7696    1.7436 C   0  0  0  0  0  0  0  0  0  0  0  0
    9.2174    2.9891    1.7292 C   0  0  0  0  0  0  0  0  0  0  0  0
   12.2039    4.7974    3.0721 C   0  0  0  0  0  0  0  0  0  0  0  0
   10.3401    5.0432    5.3048 C   0  0  0  0  0  0  0  0  0  0  0  0
    4.3800    2.9062    2.4867 C   0  0  0  0  0  0  0  0  0  0  0  0
    3.1728    3.5972    2.5008 C   0  0  0  0  0  0  0  0  0  0  0  0
    1.9830    2.8768    2.5101 C   0  0  0  0  0  0  0  0  0  0  0  0
    0.7008    3.5955    2.5256 N   0  0  0  0  0  0  0  0  0  0  0  0
   -0.4768    2.8955    2.5349 C   0  0  0  0  0  0  0  0  0  0  0  0
   -0.4616    1.6956    2.5303 O   0  0  0  0  0  0  0  0  0  0  0  0
   -1.8026    3.6387    2.5510 C   0  0  0  0  0  0  0  0  0  0  0  0
   -2.2590    3.8917    1.1233 C   0  0  0  0  0  0  0  0  0  0  0  0
    1.9867    1.4860    2.5051 C   0  0  0  0  0  0  0  0  0  0  0  0
    3.2053    0.8159    2.4905 C   0  0  0  0  0  0  0  0  0  0  0  0
    4.4072    1.5158    2.4809 C   0  0  0  0  0  0  0  0  0  0  0  0
  1  2  2  0
  2  3  1  0
  3  4  1  0
  4  5  1  0
  5  6  1  0
  6  7  1  0
  7  8  1  0
  8  9  1  0
  9  4  1  0
  7 10  1  0
  6 11  1  0
  2 12  1  0
 12 13  2  0
 13 14  1  0
 14 15  1  0
 15 16  1  0
 16 17  2  0
 16 18  1  0
 18 19  1  0
 14 20  2  0
 20 21  1  0
 21 22  2  0
 22 12  1  0
M  CHG  1   7   1
M  END
$$$$
s_2708____1181760____8696720
     RDKit          3D

 24 26  0  0  0  0  0  0  0  0999 V2000
    2.1263   -2.4260    2.0155 F   0  0  0  0  0  0  0  0  0  0  0  0
    1.9162   -1.6462    3.0728 C   0  0  0  0  0  0  0  0  0  0  0  0
    2.4235   -0.3508    3.0940 C   0  0  0  0  0  0  0  0  0  0  0  0
    2.2101    0.4721    4.1951 C   0  0  0  0  0  0  0  0  0  0  0  0
    1.4845   -0.0127    5.2784 C   0  0  0  0  0  0  0  0  0  0  0  0
    0.9791   -1.3089    5.2532 C   0  0  0  0  0  0  0  0  0  0  0  0
    1.1902   -2.1341    4.1535 C   0  0  0  0  0  0  0  0  0  0  0  0
    3.2154    0.1669    1.9034 C   0  0  0  0  0  0  0  0  0  0  0  0
    2.4042    1.0000    1.0000 N   0  0  0  0  0  0  0  0  0  0  0  0
    1.0000    1.0000    1.0000 C   0  0  0  0  0  0  0  0  0  0  0  0
    0.4000    0.0767    1.4769 O   0  0  0  0  0  0  0  0  0  0  0  0
    0.3150    2.0541    0.4555 N   0  0  0  0  0  0  0  0  0  0  0  0
   -1.1557    2.0541    0.4555 C   0  0  0  0  0  0  0  0  0  0  0  0
   -1.7133    3.2458    1.2200 C   0  0  0  0  0  0  0  0  0  0  0  0
   -3.1849    3.2516    1.2117 N   0  0  0  0  0  0  0  0  0  0  0  0
   -3.7107    3.2727   -0.1614 C   0  0  0  0  0  0  0  0  0  0  0  0
   -3.1945    2.0793   -0.9493 C   0  0  0  0  0  0  0  0  0  0  0  0
   -1.6744    2.0801   -0.9736 C   0  0  0  0  0  0  0  0  0  0  0  0
   -3.7111    4.3924    1.9779 C   0  0  0  0  0  0  0  0  0  0  0  0
    3.2046    1.8126    0.0726 C   0  0  0  0  0  0  0  0  0  0  0  0
    4.0319    2.8270    0.8461 C   0  0  0  0  0  0  0  0  0  0  0  0
    4.7791    2.1733    1.9317 N   0  0  0  0  0  0  0  0  0  0  0  0
    4.4126    0.9299    2.4626 C   0  0  0  0  0  0  0  0  0  0  0  0
    5.0560    0.4852    3.4004 O   0  0  0  0  0  0  0  0  0  0  0  0
  1  2  1  0
  2  3  2  0
  3  4  1  0
  4  5  2  0
  5  6  1  0
  6  7  2  0
  7  2  1  0
  3  8  1  0
  8  9  1  0
  9 10  1  0
 10 11  2  0
 10 12  1  0
 12 13  1  0
 13 14  1  0
 14 15  1  0
 15 16  1  0
 16 17  1  0
 17 18  1  0
 18 13  1  0
 15 19  1  0
  9 20  1  0
 20 21  1  0
 21 22  1  0
 22 23  1  0
 23  8  1  0
 23 24  2  0
M  CHG  1  15   1
M  END
$$$$
s_22____4974230____219891
     RDKit          3D

 24 25  0  0  0  0  0  0  0  0999 V2000
    4.3356    3.7506   -0.8934 O   0  0  0  0  0  0  0  0  0  0  0  0
    5.0404    2.8242   -0.6018 C   0  0  0  0  0  0  0  0  0  0  0  0
    4.4855    1.6046   -0.3161 N   0  0  0  0  0  0  0  0  0  0  0  0
    3.0267    1.4309   -0.3667 C   0  0  0  0  0  0  0  0  0  0  0  0
    2.6784    0.3666   -1.3950 C   0  0  0  0  0  0  0  0  0  0  0  0
    3.1262   -0.9380   -1.2150 C   0  0  0  0  0  0  0  0  0  0  0  0
    2.8060   -1.9086   -2.1588 C   0  0  0  0  0  0  0  0  0  0  0  0
    2.0424   -1.5717   -3.2714 C   0  0  0  0  0  0  0  0  0  0  0  0
    1.6002   -0.2654   -3.4405 C   0  0  0  0  0  0  0  0  0  0  0  0
    1.9142    0.7144   -2.5044 C   0  0  0  0  0  0  0  0  0  0  0  0
    2.5200    1.0000    1.0000 C   0  0  0  0  0  0  0  0  0  0  0  0
    1.0000    1.0000    1.0000 C   0  0  0  0  0  0  0  0  0  0  0  0
    0.4000    1.0000   -0.0392 O   0  0  0  0  0  0  0  0  0  0  0  0
    0.3150    1.0000    2.1865 N   0  0  0  0  0  0  0  0  0  0  0  0
   -1.1575    1.0000    2.1865 C   0  0  0  0  0  0  0  0  0  0  0  0
   -1.6732   -0.2383    2.9014 C   0  0  0  0  0  0  0  0  0  0  0  0
   -3.1931   -0.2184    2.9185 C   0  0  0  0  0  0  0  0  0  0  0  0
   -3.6882    1.0011    3.5758 N   0  0  0  0  0  0  0  0  0  0  0  0
   -3.1940    2.2190    2.9166 C   0  0  0  0  0  0  0  0  0  0  0  0
   -1.6738    2.2376    2.9029 C   0  0  0  0  0  0  0  0  0  0  0  0
   -5.1578    1.0459    3.5632 C   0  0  0  0  0  0  0  0  0  0  0  0
   -5.6318    2.3168    4.2492 C   0  0  0  0  0  0  0  0  0  0  0  0
   -3.6740   -1.4667    3.6408 C   0  0  0  0  0  0  0  0  0  0  0  0
    6.4000    2.9861   -0.5546 N   0  0  0  0  0  0  0  0  0  0  0  0
  1  2  2  0
  2  3  1  0
  3  4  1  0
  4  5  1  0
  5  6  2  0
  6  7  1  0
  7  8  2  0
  8  9  1  0
  9 10  2  0
 10  5  1  0
  4 11  1  0
 11 12  1  0
 12 13  2  0
 12 14  1  0
 14 15  1  0
 15 16  1  0
 16 17  1  0
 17 18  1  0
 18 19  1  0
 19 20  1  0
 20 15  1  0
 18 21  1  0
 21 22  1  0
 17 23  1  0
  2 24  1  0
M  CHG  1  18   1
M  END
$$$$
s_2708____5730620____9820842
     RDKit          3D

 27 28  0  0  0  0  0  0  0  0999 V2000
    2.4274    2.2637   -2.0372 Cl  0  0  0  0  0  0  0  0  0  0  0  0
    0.9389    3.0888   -1.5149 C   0  0  0  0  0  0  0  0  0  0  0  0
    0.0116    2.4333   -0.7119 C   0  0  0  0  0  0  0  0  0  0  0  0
   -1.1475    3.0894   -0.3094 C   0  0  0  0  0  0  0  0  0  0  0  0
   -1.3794    4.4013   -0.7107 C   0  0  0  0  0  0  0  0  0  0  0  0
   -0.4454    5.0471   -1.5142 C   0  0  0  0  0  0  0  0  0  0  0  0
   -0.7411    6.7255   -2.0286 Cl  0  0  0  0  0  0  0  0  0  0  0  0
    0.7167    4.4004   -1.9216 C   0  0  0  0  0  0  0  0  0  0  0  0
    0.2650    1.0000   -0.2731 C   0  0  0  0  0  0  0  0  0  0  0  0
    1.0000    1.0000    1.0000 N   0  0  0  0  0  0  0  0  0  0  0  0
    0.3150    1.0000    2.1865 C   0  0  0  0  0  0  0  0  0  0  0  0
    0.9150    1.0000    3.2257 O   0  0  0  0  0  0  0  0  0  0  0  0
   -1.0550    1.0000    2.1865 N   0  0  0  0  0  0  0  0  0  0  0  0
   -1.7913    1.0000    3.4617 C   0  0  0  0  0  0  0  0  0  0  0  0
   -2.6682    2.2383    3.5508 C   0  0  0  0  0  0  0  0  0  0  0  0
   -3.4430    2.2184    4.8585 C   0  0  0  0  0  0  0  0  0  0  0  0
   -4.2598    0.9989    4.9586 N   0  0  0  0  0  0  0  0  0  0  0  0
   -3.4418   -0.2190    4.8603 C   0  0  0  0  0  0  0  0  0  0  0  0
   -2.6698   -0.2376    3.5506 C   0  0  0  0  0  0  0  0  0  0  0  0
   -4.9837    0.9541    6.2377 C   0  0  0  0  0  0  0  0  0  0  0  0
   -4.3089    3.4667    4.9138 C   0  0  0  0  0  0  0  0  0  0  0  0
    2.4700    1.0000    1.0000 C   0  0  0  0  0  0  0  0  0  0  0  0
    2.9767   -0.4331    1.0000 C   0  0  0  0  0  0  0  0  0  0  0  0
    4.4467   -0.4331    1.0000 N   0  0  0  0  0  0  0  0  0  0  0  0
    5.1317   -0.2270    2.1684 C   0  0  0  0  0  0  0  0  0  0  0  0
    4.5317   -0.0466    3.1919 O   0  0  0  0  0  0  0  0  0  0  0  0
    6.6517   -0.2270    2.1684 C   0  0  0  0  0  0  0  0  0  0  0  0
  1  2  1  0
  2  3  2  0
  3  4  1  0
  4  5  2  0
  5  6  1  0
  6  7  1  0
  6  8  2  0
  8  2  1  0
  3  9  1  0
  9 10  1  0
 10 11  1  0
 11 12  2  0
 11 13  1  0
 13 14  1  0
 14 15  1  0
 15 16  1  0
 16 17  1  0
 17 18  1  0
 18 19  1  0
 19 14  1  0
 17 20  1  0
 16 21  1  0
 10 22  1  0
 22 23  1  0
 23 24  1  0
 24 25  1  0
 25 26  2  0
 25 27  1  0
M  CHG  1  17   1
M  END
$$$$
s_22____2308218____17513450
     RDKit          3D

 26 27  0  0  0  0  0  0  0  0999 V2000
    7.5173   -1.4612    2.1346 F   0  0  0  0  0  0  0  0  0  0  0  0
    7.4704   -1.9686    0.9061 C   0  0  0  0  0  0  0  0  0  0  0  0
    7.0329   -3.2234    0.9612 F   0  0  0  0  0  0  0  0  0  0  0  0
    8.6876   -1.9467    0.3706 F   0  0  0  0  0  0  0  0  0  0  0  0
    6.5257   -1.1397    0.0513 C   0  0  0  0  0  0  0  0  0  0  0  0
    5.1503   -1.3081    0.5375 N   0  0  0  0  0  0  0  0  0  0  0  0
    4.6019   -0.0359    1.0000 C   0  0  0  0  0  0  0  0  0  0  0  0
    3.1048   -0.2727    1.0000 C   0  0  0  0  0  0  0  0  0  0  0  0
    2.3700    1.0000    1.0000 N   0  0  0  0  0  0  0  0  0  0  0  0
    1.0000    1.0000    1.0000 C   0  0  0  0  0  0  0  0  0  0  0  0
    0.4000   -0.0392    1.0000 O   0  0  0  0  0  0  0  0  0  0  0  0
    0.2400    2.3164    1.0000 C   0  0  0  0  0  0  0  0  0  0  0  0
    0.9144    3.2716    0.1091 N   0  0  0  0  0  0  0  0  0  0  0  0
    0.2459    3.7951   -0.9660 C   0  0  0  0  0  0  0  0  0  0  0  0
   -0.8902    3.4738   -1.1805 O   0  0  0  0  0  0  0  0  0  0  0  0
    0.9433    4.7827   -1.8871 C   0  0  0  0  0  0  0  0  0  0  0  0
    0.2022    2.8796    2.4113 C   0  0  0  0  0  0  0  0  0  0  0  0
   -0.5578    4.1960    2.4113 C   0  0  0  0  0  0  0  0  0  0  0  0
   -1.9328    4.1924    2.6216 C   0  0  0  0  0  0  0  0  0  0  0  0
   -2.6323    5.3945    2.6232 C   0  0  0  0  0  0  0  0  0  0  0  0
   -1.9464    6.5869    2.4146 C   0  0  0  0  0  0  0  0  0  0  0  0
   -2.6214    7.7558    2.4150 O   0  0  0  0  0  0  0  0  0  0  0  0
   -0.5714    6.5960    2.2035 C   0  0  0  0  0  0  0  0  0  0  0  0
    0.1231    5.3910    2.2033 C   0  0  0  0  0  0  0  0  0  0  0  0
    2.9300   -1.0121   -0.3164 C   0  0  0  0  0  0  0  0  0  0  0  0
    4.2846   -1.6296   -0.6017 C   0  0  0  0  0  0  0  0  0  0  0  0
  1  2  1  0
  2  3  1  0
  2  4  1  0
  2  5  1  0
  5  6  1  0
  6  7  1  0
  7  8  1  0
  8  9  1  0
  9 10  1  0
 10 11  2  0
 10 12  1  0
 12 13  1  0
 13 14  1  0
 14 15  2  0
 14 16  1  0
 12 17  1  0
 17 18  1  0
 18 19  2  0
 19 20  1  0
 20 21  2  0
 21 22  1  0
 21 23  1  0
 23 24  2  0
 24 18  1  0
  8 25  1  0
 25 26  1  0
 26  6  1  0
M  CHG  1   6   1
M  END
$$$$
s_22____15757826____17513450
     RDKit          3D

 27 28  0  0  0  0  0  0  0  0999 V2000
    2.1006    0.3730   -1.2130 F   0  0  0  0  0  0  0  0  0  0  0  0
    2.9767    1.0000   -0.4331 C   0  0  0  0  0  0  0  0  0  0  0  0
    3.1244    2.2539   -0.8510 F   0  0  0  0  0  0  0  0  0  0  0  0
    4.3178    0.2823   -0.4972 C   0  0  0  0  0  0  0  0  0  0  0  0
    4.2827   -0.8263    0.3875 O   0  0  0  0  0  0  0  0  0  0  0  0
    5.4844   -1.5720    0.2597 C   0  0  0  0  0  0  0  0  0  0  0  0
    4.6913   -0.1615   -1.8954 C   0  0  0  0  0  0  0  0  0  0  0  0
    5.1390    1.1234   -2.5562 C   0  0  0  0  0  0  0  0  0  0  0  0
    5.9606    1.8078   -1.4797 C   0  0  0  0  0  0  0  0  0  0  0  0
    5.5075    1.1698   -0.1839 C   0  0  0  0  0  0  0  0  0  0  0  0
    2.4700    1.0000    1.0000 C   0  0  0  0  0  0  0  0  0  0  0  0
    1.0000    1.0000    1.0000 N   0  0  0  0  0  0  0  0  0  0  0  0
    0.3150    1.0000    2.1865 C   0  0  0  0  0  0  0  0  0  0  0  0
    0.9150    1.0000    3.2257 O   0  0  0  0  0  0  0  0  0  0  0  0
   -1.2050    1.0000    2.1865 C   0  0  0  0  0  0  0  0  0  0  0  0
   -1.6950    1.0000    3.5724 N   0  0  0  0  0  0  0  0  0  0  0  0
   -2.4826    2.0275    4.0205 C   0  0  0  0  0  0  0  0  0  0  0  0
   -2.7725    2.9275    3.2816 O   0  0  0  0  0  0  0  0  0  0  0  0
   -2.9893    2.0275    5.4535 C   0  0  0  0  0  0  0  0  0  0  0  0
   -1.7117   -0.2411    1.4699 C   0  0  0  0  0  0  0  0  0  0  0  0
   -3.2317   -0.2411    1.4699 C   0  0  0  0  0  0  0  0  0  0  0  0
   -3.9161    0.3644    0.4212 C   0  0  0  0  0  0  0  0  0  0  0  0
   -5.3069    0.3662    0.4166 C   0  0  0  0  0  0  0  0  0  0  0  0
   -5.9966   -0.2391    1.4624 C   0  0  0  0  0  0  0  0  0  0  0  0
   -7.3464   -0.2393    1.4621 O   0  0  0  0  0  0  0  0  0  0  0  0
   -5.3170   -0.8457    2.5138 C   0  0  0  0  0  0  0  0  0  0  0  0
   -3.9262   -0.8449    2.5131 C   0  0  0  0  0  0  0  0  0  0  0  0
  1  2  1  0
  2  3  1  0
  2  4  1  0
  4  5  1  0
  5  6  1  0
  4  7  1  0
  7  8  1  0
  8  9  1  0
  9 10  1  0
 10  4  1  0
  2 11  1  0
 11 12  1  0
 12 13  1  0
 13 14  2  0
 13 15  1  0
 15 16  1  0
 16 17  1  0
 17 18  2  0
 17 19  1  0
 15 20  1  0
 20 21  1  0
 21 22  2  0
 22 23  1  0
 23 24  2  0
 24 25  1  0
 24 26  1  0
 26 27  2  0
 27 21  1  0
M  END
$$$$
s_22____15248554____220032
     RDKit          3D

 24 25  0  0  0  0  0  0  0  0999 V2000
    1.5239    0.5299   -2.6349 S   0  0  0  0  0  0  0  0  0  0  0  0
    2.6781    0.3655   -1.3961 C   0  0  0  0  0  0  0  0  0  0  0  0
    3.2192   -0.8774   -1.5074 C   0  0  0  0  0  0  0  0  0  0  0  0
    2.6651   -1.6331   -2.5775 C   0  0  0  0  0  0  0  0  0  0  0  0
    1.7023   -1.0184   -3.3205 C   0  0  0  0  0  0  0  0  0  0  0  0
    3.0267    1.4309   -0.3667 C   0  0  0  0  0  0  0  0  0  0  0  0
    4.4855    1.6046   -0.3161 N   0  0  0  0  0  0  0  0  0  0  0  0
    5.0404    2.8242   -0.6018 C   0  0  0  0  0  0  0  0  0  0  0  0
    4.3356    3.7506   -0.8934 O   0  0  0  0  0  0  0  0  0  0  0  0
    6.5489    3.0038   -0.5495 C   0  0  0  0  0  0  0  0  0  0  0  0
    2.5200    1.0000    1.0000 C   0  0  0  0  0  0  0  0  0  0  0  0
    1.0000    1.0000    1.0000 C   0  0  0  0  0  0  0  0  0  0  0  0
    0.4000    1.0000   -0.0392 O   0  0  0  0  0  0  0  0  0  0  0  0
    0.3150    1.0000    2.1865 N   0  0  0  0  0  0  0  0  0  0  0  0
   -1.1557    1.0000    2.1865 C   0  0  0  0  0  0  0  0  0  0  0  0
   -1.7133   -0.2261    2.8944 C   0  0  0  0  0  0  0  0  0  0  0  0
   -3.1849   -0.2214    2.9033 N   0  0  0  0  0  0  0  0  0  0  0  0
   -3.7111   -1.4256    3.5653 C   0  0  0  0  0  0  0  0  0  0  0  0
   -3.2317   -2.6623    2.8228 C   0  0  0  0  0  0  0  0  0  0  0  0
   -3.2146   -1.4724    5.0011 C   0  0  0  0  0  0  0  0  0  0  0  0
   -5.2306   -1.3861    3.5556 C   0  0  0  0  0  0  0  0  0  0  0  0
   -3.7107    0.9889    3.5522 C   0  0  0  0  0  0  0  0  0  0  0  0
   -3.1945    2.2365    2.8535 C   0  0  0  0  0  0  0  0  0  0  0  0
   -1.6744    2.2579    2.8654 C   0  0  0  0  0  0  0  0  0  0  0  0
  1  2  1  0
  2  3  2  0
  3  4  1  0
  4  5  2  0
  5  1  1  0
  2  6  1  0
  6  7  1  0
  7  8  1  0
  8  9  2  0
  8 10  1  0
  6 11  1  0
 11 12  1  0
 12 13  2  0
 12 14  1  0
 14 15  1  0
 15 16  1  0
 16 17  1  0
 17 18  1  0
 18 19  1  0
 18 20  1  0
 18 21  1  0
 17 22  1  0
 22 23  1  0
 23 24  1  0
 24 15  1  0
M  CHG  1  17   1
M  END
$$$$
s_272212____16644262____14247350
     RDKit          3D

 24 26  0  0  0  0  0  0  0  0999 V2000
   -0.3410   -3.5345    2.5887 F   0  0  0  0  0  0  0  0  0  0  0  0
    0.5682   -2.7858    1.9718 C   0  0  0  0  0  0  0  0  0  0  0  0
    0.4443   -1.4009    1.9759 C   0  0  0  0  0  0  0  0  0  0  0  0
    1.4078   -0.6373    1.3251 C   0  0  0  0  0  0  0  0  0  0  0  0
    2.4833   -1.2367    0.6773 C   0  0  0  0  0  0  0  0  0  0  0  0
    2.5968   -2.6231    0.6811 C   0  0  0  0  0  0  0  0  0  0  0  0
    1.6387   -3.3978    1.3277 C   0  0  0  0  0  0  0  0  0  0  0  0
    1.2739    0.8762    1.3276 C   0  0  0  0  0  0  0  0  0  0  0  0
    1.9945    1.4468    2.5386 C   0  0  0  0  0  0  0  0  0  0  0  0
    3.4189    1.1018    2.5147 N   0  0  0  0  0  0  0  0  0  0  0  0
    4.1555    2.2887    2.4892 C   0  0  0  0  0  0  0  0  0  0  0  0
    5.3743    2.3475    2.4635 O   0  0  0  0  0  0  0  0  0  0  0  0
    3.3018    3.3939    2.5029 N   0  0  0  0  0  0  0  0  0  0  0  0
    1.9798    2.9577    2.5312 C   0  0  0  0  0  0  0  0  0  0  0  0
    0.9852    3.6651    2.5372 O   0  0  0  0  0  0  0  0  0  0  0  0
    3.7349    4.7975    2.4885 C   0  0  0  0  0  0  0  0  0  0  0  0
    3.1462    5.4403    1.2367 C   0  0  0  0  0  0  0  0  0  0  0  0
    3.6274    6.7998    0.9172 N   0  0  0  0  0  0  0  0  0  0  0  0
    3.7351    7.7403    2.0499 C   0  0  0  0  0  0  0  0  0  0  0  0
    4.7886    7.3166    3.0716 C   0  0  0  0  0  0  0  0  0  0  0  0
    4.2707    6.5233    4.1977 N   0  0  0  0  0  0  0  0  0  0  0  0
    3.3195    5.4736    3.7872 C   0  0  0  0  0  0  0  0  0  0  0  0
    3.6091    7.3670    5.2031 C   0  0  0  0  0  0  0  0  0  0  0  0
    2.7033    7.3895   -0.0612 C   0  0  0  0  0  0  0  0  0  0  0  0
  1  2  1  0
  2  3  2  0
  3  4  1  0
  4  5  2  0
  5  6  1  0
  6  7  2  0
  7  2  1  0
  4  8  1  0
  8  9  1  0
  9 10  1  0
 10 11  1  0
 11 12  2  0
 11 13  1  0
 13 14  1  0
 14  9  1  0
 14 15  2  0
 13 16  1  0
 16 17  1  0
 17 18  1  0
 18 19  1  0
 19 20  1  0
 20 21  1  0
 21 22  1  0
 22 16  1  0
 21 23  1  0
 18 24  1  0
M  CHG  2  18   1  21   1
M  END
$$$$
s_240690b____11576150____16478382
     RDKit          3D

 26 27  0  0  0  0  0  0  0  0999 V2000
    4.1399    6.3669    5.6527 F   0  0  0  0  0  0  0  0  0  0  0  0
    3.3989    5.4805    4.9932 C   0  0  0  0  0  0  0  0  0  0  0  0
    3.0177    5.7375    3.6803 C   0  0  0  0  0  0  0  0  0  0  0  0
    2.2420    4.8063    2.9973 C   0  0  0  0  0  0  0  0  0  0  0  0
    1.8576    3.6310    3.6341 C   0  0  0  0  0  0  0  0  0  0  0  0
    2.2420    3.3791    4.9466 C   0  0  0  0  0  0  0  0  0  0  0  0
    3.0178    4.3063    5.6343 C   0  0  0  0  0  0  0  0  0  0  0  0
    1.0100    2.6179    2.8824 C   0  0  0  0  0  0  0  0  0  0  0  0
    1.8776    1.8776    1.8776 C   0  0  0  0  0  0  0  0  0  0  0  0
    2.8824    1.0100    2.6179 C   0  0  0  0  0  0  0  0  0  0  0  0
    2.5270    0.3416    3.5489 O   0  0  0  0  0  0  0  0  0  0  0  0
    4.1939    0.9912    2.2222 N   0  0  0  0  0  0  0  0  0  0  0  0
    5.1178   -0.0030    2.7869 C   0  0  0  0  0  0  0  0  0  0  0  0
    4.6772    1.9652    1.2329 C   0  0  0  0  0  0  0  0  0  0  0  0
    1.0000    1.0000    1.0000 C   0  0  0  0  0  0  0  0  0  0  0  0
    1.8487    0.1513    0.1513 N   0  0  0  0  0  0  0  0  0  0  0  0
    2.0760   -1.1545    0.4979 C   0  0  0  0  0  0  0  0  0  0  0  0
    1.4461   -1.6577    1.3868 O   0  0  0  0  0  0  0  0  0  0  0  0
    3.1261   -1.9661   -0.2436 C   0  0  0  0  0  0  0  0  0  0  0  0
    3.7682   -1.0956   -1.3101 C   0  0  0  0  0  0  0  0  0  0  0  0
    4.3773   -1.9316   -2.3574 N   0  0  0  0  0  0  0  0  0  0  0  0
    4.8070   -3.2321   -1.8063 C   0  0  0  0  0  0  0  0  0  0  0  0
    3.5982   -4.0896   -1.4478 C   0  0  0  0  0  0  0  0  0  0  0  0
    2.5038   -3.1183   -1.0169 C   0  0  0  0  0  0  0  0  0  0  0  0
    3.9885   -5.0576   -0.3401 C   0  0  0  0  0  0  0  0  0  0  0  0
    3.0700   -4.8649   -2.6419 C   0  0  0  0  0  0  0  0  0  0  0  0
  1  2  1  0
  2  3  2  0
  3  4  1  0
  4  5  2  0
  5  6  1  0
  6  7  2  0
  7  2  1  0
  5  8  1  0
  8  9  1  0
  9 10  1  0
 10 11  2  0
 10 12  1  0
 12 13  1  0
 12 14  1  0
  9 15  1  0
 15 16  1  0
 16 17  1  0
 17 18  2  0
 17 19  1  0
 19 20  1  0
 20 21  1  0
 21 22  1  0
 22 23  1  0
 23 24  1  0
 24 19  1  0
 23 25  1  0
 23 26  1  0
M  CHG  1  21   1
M  END
$$$$
s_22____4974264____107338
     RDKit          3D

 30 31  0  0  0  0  0  0  0  0999 V2000
    6.4582    0.0491    3.6844 O   0  0  0  0  0  0  0  0  0  0  0  0
    6.0054    0.2534    4.7768 C   0  0  0  0  0  0  0  0  0  0  0  0
    4.8853    1.0290    4.9199 N   0  0  0  0  0  0  0  0  0  0  0  0
    4.1742    1.5203    3.7303 C   0  0  0  0  0  0  0  0  0  0  0  0
    4.1485    3.0405    3.7227 C   0  0  0  0  0  0  0  0  0  0  0  0
    3.3883    3.5407    2.5048 C   0  0  0  0  0  0  0  0  0  0  0  0
    2.0190    3.0044    2.4864 N   0  0  0  0  0  0  0  0  0  0  0  0
    2.0079    1.5337    2.5144 C   0  0  0  0  0  0  0  0  0  0  0  0
    2.7425    1.0069    3.7376 C   0  0  0  0  0  0  0  0  0  0  0  0
    1.2741    3.5096    1.3245 C   0  0  0  0  0  0  0  0  0  0  0  0
    1.2041    5.0267    1.3881 C   0  0  0  0  0  0  0  0  0  0  0  0
    0.4337    5.5492    0.1865 C   0  0  0  0  0  0  0  0  0  0  0  0
    0.3683    6.9664    0.2460 O   0  0  0  0  0  0  0  0  0  0  0  0
   -0.3514    7.4545   -0.8766 C   0  0  0  0  0  0  0  0  0  0  0  0
   -0.4214    8.9716   -0.8130 C   0  0  0  0  0  0  0  0  0  0  0  0
    5.5730    3.5722    3.7253 C   0  0  0  0  0  0  0  0  0  0  0  0
    6.6748   -0.3485    6.0016 C   0  0  0  0  0  0  0  0  0  0  0  0
    8.0884   -0.7794    5.6461 C   0  0  0  0  0  0  0  0  0  0  0  0
    8.6725   -1.5212    6.7728 N   0  0  0  0  0  0  0  0  0  0  0  0
    9.0810   -2.8176    6.6012 C   0  0  0  0  0  0  0  0  0  0  0  0
    8.9621   -3.3475    5.5312 O   0  0  0  0  0  0  0  0  0  0  0  0
    9.6850   -3.5846    7.7663 C   0  0  0  0  0  0  0  0  0  0  0  0
    8.9347    0.4493    5.3553 C   0  0  0  0  0  0  0  0  0  0  0  0
    9.0655    1.4358    6.3272 C   0  0  0  0  0  0  0  0  0  0  0  0
    9.8394    2.5615    6.0658 C   0  0  0  0  0  0  0  0  0  0  0  0
   10.4741    2.6861    4.8340 C   0  0  0  0  0  0  0  0  0  0  0  0
   11.2259    3.7771    4.5760 O   0  0  0  0  0  0  0  0  0  0  0  0
   11.6239    4.0663    3.2440 C   0  0  0  0  0  0  0  0  0  0  0  0
   10.3462    1.7025    3.8584 C   0  0  0  0  0  0  0  0  0  0  0  0
    9.5714    0.5788    4.1253 C   0  0  0  0  0  0  0  0  0  0  0  0
  1  2  2  0
  2  3  1  0
  3  4  1  0
  4  5  1  0
  5  6  1  0
  6  7  1  0
  7  8  1  0
  8  9  1  0
  9  4  1  0
  7 10  1  0
 10 11  1  0
 11 12  1  0
 12 13  1  0
 13 14  1  0
 14 15  1  0
  5 16  1  0
  2 17  1  0
 17 18  1  0
 18 19  1  0
 19 20  1  0
 20 21  2  0
 20 22  1  0
 18 23  1  0
 23 24  2  0
 24 25  1  0
 25 26  2  0
 26 27  1  0
 27 28  1  0
 26 29  1  0
 29 30  2  0
 30 23  1  0
M  CHG  1   7   1
M  END
$$$$
s_22____9044506____12900018
     RDKit          3D

 22 23  0  0  0  0  0  0  0  0999 V2000
    3.0383    3.2257   -0.4661 O   0  0  0  0  0  0  0  0  0  0  0  0
    3.2383    2.1865   -1.0318 C   0  0  0  0  0  0  0  0  0  0  0  0
    3.0100    1.0000   -0.3859 N   0  0  0  0  0  0  0  0  0  0  0  0
    3.2434   -0.2126   -1.0460 C   0  0  0  0  0  0  0  0  0  0  0  0
    2.2184   -0.8090   -1.7736 C   0  0  0  0  0  0  0  0  0  0  0  0
    2.4541   -2.0135   -2.4281 C   0  0  0  0  0  0  0  0  0  0  0  0
    3.7069   -2.6126   -2.3521 C   0  0  0  0  0  0  0  0  0  0  0  0
    4.7243   -2.0071   -1.6223 C   0  0  0  0  0  0  0  0  0  0  0  0
    4.5003   -0.8027   -0.9635 C   0  0  0  0  0  0  0  0  0  0  0  0
    2.5200    1.0000    1.0000 C   0  0  0  0  0  0  0  0  0  0  0  0
    1.0000    1.0000    1.0000 C   0  0  0  0  0  0  0  0  0  0  0  0
    0.4000    1.0000   -0.0392 O   0  0  0  0  0  0  0  0  0  0  0  0
    0.3150    1.0000    2.1865 N   0  0  0  0  0  0  0  0  0  0  0  0
   -1.1555    1.0000    2.1865 C   0  0  0  0  0  0  0  0  0  0  0  0
   -1.7202    2.2151    2.8880 C   0  0  0  0  0  0  0  0  0  0  0  0
   -1.6146    3.3688    1.9837 N   0  0  0  0  0  0  0  0  0  0  0  0
   -2.3767    3.1002    0.7557 C   0  0  0  0  0  0  0  0  0  0  0  0
   -2.1586    4.5626    2.6468 C   0  0  0  0  0  0  0  0  0  0  0  0
   -3.1727    1.8364    3.0912 C   0  0  0  0  0  0  0  0  0  0  0  0
   -3.1757    0.3277    3.2450 C   0  0  0  0  0  0  0  0  0  0  0  0
   -1.7301   -0.0958    3.0507 C   0  0  0  0  0  0  0  0  0  0  0  0
    3.7450    2.1865   -2.4648 C   0  0  0  0  0  0  0  0  0  0  0  0
  1  2  2  0
  2  3  1  0
  3  4  1  0
  4  5  2  0
  5  6  1  0
  6  7  2  0
  7  8  1  0
  8  9  2  0
  9  4  1  0
  3 10  1  0
 10 11  1  0
 11 12  2  0
 11 13  1  0
 13 14  1  0
 14 15  1  0
 15 16  1  0
 16 17  1  0
 16 18  1  0
 15 19  1  0
 19 20  1  0
 20 21  1  0
 21 14  1  0
  2 22  1  0
M  CHG  1  16   1
M  END
$$$$
s_22____116752____16717358
     RDKit          3D

 29 30  0  0  0  0  0  0  0  0999 V2000
   -0.3868    1.6571   -0.7943 O   0  0  0  0  0  0  0  0  0  0  0  0
    0.7075    1.7208   -0.3059 C   0  0  0  0  0  0  0  0  0  0  0  0
    1.6931    2.4433   -0.9252 N   0  0  0  0  0  0  0  0  0  0  0  0
    1.4096    3.1417   -2.1906 C   0  0  0  0  0  0  0  0  0  0  0  0
    2.3244    2.6191   -3.2875 C   0  0  0  0  0  0  0  0  0  0  0  0
    2.0414    3.3597   -4.5849 C   0  0  0  0  0  0  0  0  0  0  0  0
    2.2276    4.8092   -4.4198 N   0  0  0  0  0  0  0  0  0  0  0  0
    1.3754    5.3476   -3.3489 C   0  0  0  0  0  0  0  0  0  0  0  0
    1.6489    4.6349   -2.0341 C   0  0  0  0  0  0  0  0  0  0  0  0
    1.9825    5.5209   -5.6850 C   0  0  0  0  0  0  0  0  0  0  0  0
    2.9535    5.0226   -6.7430 C   0  0  0  0  0  0  0  0  0  0  0  0
    4.3793    5.2812   -6.2841 C   0  0  0  0  0  0  0  0  0  0  0  0
    1.0000    1.0000    1.0000 C   0  0  0  0  0  0  0  0  0  0  0  0
    1.8487    1.8487    1.8487 N   0  0  0  0  0  0  0  0  0  0  0  0
    3.0831    1.4052    2.2442 C   0  0  0  0  0  0  0  0  0  0  0  0
    3.4716    0.3240    1.8978 O   0  0  0  0  0  0  0  0  0  0  0  0
    3.9607    2.2828    3.1218 C   0  0  0  0  0  0  0  0  0  0  0  0
    5.2236    1.5857    3.4047 N   0  0  0  0  0  0  0  0  0  0  0  0
    6.2255    1.5772    2.4703 C   0  0  0  0  0  0  0  0  0  0  0  0
    6.0722    2.1388    1.4210 O   0  0  0  0  0  0  0  0  0  0  0  0
    7.5314    0.8564    2.7629 C   0  0  0  0  0  0  0  0  0  0  0  0
   -0.3059    0.7075    1.7208 C   0  0  0  0  0  0  0  0  0  0  0  0
   -0.0133   -0.0134    3.0267 C   0  0  0  0  0  0  0  0  0  0  0  0
    0.1949    0.7274    4.1855 C   0  0  0  0  0  0  0  0  0  0  0  0
    0.4621    0.0721    5.3829 C   0  0  0  0  0  0  0  0  0  0  0  0
    0.5173   -1.3180    5.4060 C   0  0  0  0  0  0  0  0  0  0  0  0
    0.7767   -1.9580    6.5658 O   0  0  0  0  0  0  0  0  0  0  0  0
    0.3102   -2.0634    4.2499 C   0  0  0  0  0  0  0  0  0  0  0  0
    0.0429   -1.4030    3.0554 C   0  0  0  0  0  0  0  0  0  0  0  0
  1  2  2  0
  2  3  1  0
  3  4  1  0
  4  5  1  0
  5  6  1  0
  6  7  1  0
  7  8  1  0
  8  9  1  0
  9  4  1  0
  7 10  1  0
 10 11  1  0
 11 12  1  0
  2 13  1  0
 13 14  1  0
 14 15  1  0
 15 16  2  0
 15 17  1  0
 17 18  1  0
 18 19  1  0
 19 20  2  0
 19 21  1  0
 13 22  1  0
 22 23  1  0
 23 24  2  0
 24 25  1  0
 25 26  2  0
 26 27  1  0
 26 28  1  0
 28 29  2  0
 29 23  1  0
M  CHG  1   7   1
M  END
$$$$
s_22____12056416____17513450
     RDKit          3D

 24 25  0  0  0  0  0  0  0  0999 V2000
    7.2123    4.3980   -0.4616 F   0  0  0  0  0  0  0  0  0  0  0  0
    6.5281    3.2614   -0.5551 C   0  0  0  0  0  0  0  0  0  0  0  0
    5.2066    3.4033    0.1824 C   0  0  0  0  0  0  0  0  0  0  0  0
    4.4246    2.1042    0.0755 C   0  0  0  0  0  0  0  0  0  0  0  0
    3.1093    2.2776    0.8221 C   0  0  0  0  0  0  0  0  0  0  0  0
    2.3991    1.0000    1.0000 N   0  0  0  0  0  0  0  0  0  0  0  0
    1.0000    1.0000    1.0000 C   0  0  0  0  0  0  0  0  0  0  0  0
    0.4000    2.0293    0.8566 O   0  0  0  0  0  0  0  0  0  0  0  0
    0.2400   -0.3038    1.1816 C   0  0  0  0  0  0  0  0  0  0  0  0
   -1.0444   -0.2253    0.4710 N   0  0  0  0  0  0  0  0  0  0  0  0
   -1.1292   -0.6242   -0.8369 C   0  0  0  0  0  0  0  0  0  0  0  0
   -0.1550   -1.0377   -1.4024 O   0  0  0  0  0  0  0  0  0  0  0  0
   -2.4574   -0.5431   -1.5716 C   0  0  0  0  0  0  0  0  0  0  0  0
   -0.0133   -0.5407    2.6615 C   0  0  0  0  0  0  0  0  0  0  0  0
   -0.7734   -1.8445    2.8431 C   0  0  0  0  0  0  0  0  0  0  0  0
   -0.0668   -3.0312    3.0084 C   0  0  0  0  0  0  0  0  0  0  0  0
   -0.7580   -4.2265    3.1756 C   0  0  0  0  0  0  0  0  0  0  0  0
   -2.1493   -4.2195    3.1759 C   0  0  0  0  0  0  0  0  0  0  0  0
   -2.8591   -5.4375    3.3460 O   0  0  0  0  0  0  0  0  0  0  0  0
   -2.8607   -3.0355    3.0107 C   0  0  0  0  0  0  0  0  0  0  0  0
   -2.1644   -1.8431    2.8443 C   0  0  0  0  0  0  0  0  0  0  0  0
    3.0985   -0.2840    1.1753 C   0  0  0  0  0  0  0  0  0  0  0  0
    4.4162   -0.3235    0.4133 C   0  0  0  0  0  0  0  0  0  0  0  0
    5.2440    0.9393    0.6128 C   0  0  0  0  0  0  0  0  0  0  0  0
  1  2  1  0
  2  3  1  0
  3  4  1  0
  4  5  1  0
  5  6  1  0
  6  7  1  0
  7  8  2  0
  7  9  1  0
  9 10  1  0
 10 11  1  0
 11 12  2  0
 11 13  1  0
  9 14  1  0
 14 15  1  0
 15 16  2  0
 16 17  1  0
 17 18  2  0
 18 19  1  0
 18 20  1  0
 20 21  2  0
 21 15  1  0
  6 22  1  0
 22 23  1  0
 23 24  1  0
 24  4  1  0
M  END
$$$$
s_22____12206138____15713960
     RDKit          3D

 25 26  0  0  0  0  0  0  0  0999 V2000
    3.9272    2.8352    0.7118 O   0  0  0  0  0  0  0  0  0  0  0  0
    2.9767    2.2411    0.2835 C   0  0  0  0  0  0  0  0  0  0  0  0
    2.3756    2.6621   -0.8017 O   0  0  0  0  0  0  0  0  0  0  0  0
    2.8490    3.8216   -1.4711 C   0  0  0  0  0  0  0  0  0  0  0  0
    2.4700    1.0000    1.0000 C   0  0  0  0  0  0  0  0  0  0  0  0
    1.0000    1.0000    1.0000 N   0  0  0  0  0  0  0  0  0  0  0  0
    0.3150    1.0000    2.1865 C   0  0  0  0  0  0  0  0  0  0  0  0
    0.9150    1.0000    3.2257 O   0  0  0  0  0  0  0  0  0  0  0  0
   -1.2051    1.0000    2.1865 C   0  0  0  0  0  0  0  0  0  0  0  0
   -1.7222   -0.2381    1.4717 C   0  0  0  0  0  0  0  0  0  0  0  0
   -3.2424   -0.2384    1.4621 C   0  0  0  0  0  0  0  0  0  0  0  0
   -3.7646    1.0120    0.7726 C   0  0  0  0  0  0  0  0  0  0  0  0
   -5.2344    1.0103    0.7803 N   0  0  0  0  0  0  0  0  0  0  0  0
   -5.7293    2.2224    0.1119 C   0  0  0  0  0  0  0  0  0  0  0  0
   -5.7267   -0.1777    0.0682 C   0  0  0  0  0  0  0  0  0  0  0  0
   -3.2474    2.2442    1.4972 C   0  0  0  0  0  0  0  0  0  0  0  0
   -1.7272    2.2528    1.5018 C   0  0  0  0  0  0  0  0  0  0  0  0
    2.9767   -0.2411    0.2835 C   0  0  0  0  0  0  0  0  0  0  0  0
    4.4971   -0.2411    0.2835 C   0  0  0  0  0  0  0  0  0  0  0  0
    5.1926   -0.8436    1.3271 C   0  0  0  0  0  0  0  0  0  0  0  0
    4.5331   -1.4322    2.3479 O   0  0  0  0  0  0  0  0  0  0  0  0
    6.5840   -0.8435    1.3273 C   0  0  0  0  0  0  0  0  0  0  0  0
    7.2796   -0.2412    0.2834 C   0  0  0  0  0  0  0  0  0  0  0  0
    6.5837    0.3606   -0.7603 C   0  0  0  0  0  0  0  0  0  0  0  0
    5.1926    0.3600   -0.7604 C   0  0  0  0  0  0  0  0  0  0  0  0
  1  2  2  0
  2  3  1  0
  3  4  1  0
  2  5  1  0
  5  6  1  0
  6  7  1  0
  7  8  2  0
  7  9  1  0
  9 10  1  0
 10 11  1  0
 11 12  1  0
 12 13  1  0
 13 14  1  0
 13 15  1  0
 12 16  1  0
 16 17  1  0
 17  9  1  0
  5 18  1  0
 18 19  1  0
 19 20  2  0
 20 21  1  0
 20 22  1  0
 22 23  2  0
 23 24  1  0
 24 25  2  0
 25 19  1  0
M  CHG  1  13   1
M  END
$$$$
s_22____6286038____17513450
     RDKit          3D

 25 26  0  0  0  0  0  0  0  0999 V2000
    0.4000    1.4799    0.0782 O   0  0  0  0  0  0  0  0  0  0  0  0
    1.0000    1.0000    1.0000 C   0  0  0  0  0  0  0  0  0  0  0  0
    2.3982    1.0000    1.0000 N   0  0  0  0  0  0  0  0  0  0  0  0
    3.2518   -0.1379    1.3458 C   0  0  0  0  0  0  0  0  0  0  0  0
    4.5485    0.1681    0.6268 C   0  0  0  0  0  0  0  0  0  0  0  0
    5.6827   -0.5661    1.2120 N   0  0  0  0  0  0  0  0  0  0  0  0
    6.6139   -0.9606    0.1452 C   0  0  0  0  0  0  0  0  0  0  0  0
    5.8932   -1.8529   -0.8521 C   0  0  0  0  0  0  0  0  0  0  0  0
    6.3797    0.2968    2.1766 C   0  0  0  0  0  0  0  0  0  0  0  0
    7.5506   -0.4611    2.7807 C   0  0  0  0  0  0  0  0  0  0  0  0
    4.6523    1.6509    0.9071 C   0  0  0  0  0  0  0  0  0  0  0  0
    3.2453    2.1441    0.6540 C   0  0  0  0  0  0  0  0  0  0  0  0
    0.2400    0.3922    2.1676 C   0  0  0  0  0  0  0  0  0  0  0  0
   -1.1768    0.2425    1.8054 N   0  0  0  0  0  0  0  0  0  0  0  0
   -1.7569   -0.9986    1.8071 C   0  0  0  0  0  0  0  0  0  0  0  0
   -1.1084   -1.9636    2.1042 O   0  0  0  0  0  0  0  0  0  0  0  0
   -3.2219   -1.1533    1.4326 C   0  0  0  0  0  0  0  0  0  0  0  0
    0.3599    1.3024    3.3790 C   0  0  0  0  0  0  0  0  0  0  0  0
   -0.2388    0.6113    4.5933 C   0  0  0  0  0  0  0  0  0  0  0  0
    0.5715   -0.1840    5.3969 C   0  0  0  0  0  0  0  0  0  0  0  0
    0.0283   -0.8177    6.5094 C   0  0  0  0  0  0  0  0  0  0  0  0
   -1.3206   -0.6473    6.8047 C   0  0  0  0  0  0  0  0  0  0  0  0
   -1.8520   -1.2607    7.8833 O   0  0  0  0  0  0  0  0  0  0  0  0
   -2.1355    0.1467    6.0042 C   0  0  0  0  0  0  0  0  0  0  0  0
   -1.5869    0.7784    4.8932 C   0  0  0  0  0  0  0  0  0  0  0  0
  1  2  2  0
  2  3  1  0
  3  4  1  0
  4  5  1  0
  5  6  1  0
  6  7  1  0
  7  8  1  0
  6  9  1  0
  9 10  1  0
  5 11  1  0
 11 12  1  0
 12  3  1  0
  2 13  1  0
 13 14  1  0
 14 15  1  0
 15 16  2  0
 15 17  1  0
 13 18  1  0
 18 19  1  0
 19 20  2  0
 20 21  1  0
 21 22  2  0
 22 23  1  0
 22 24  1  0
 24 25  2  0
 25 19  1  0
M  CHG  1   6   1
M  END
$$$$
s_2708____4974248____4509338
     RDKit          3D

 23 24  0  0  0  0  0  0  0  0999 V2000
    0.4000   -0.0392    1.0000 O   0  0  0  0  0  0  0  0  0  0  0  0
    1.0000    1.0000    1.0000 C   0  0  0  0  0  0  0  0  0  0  0  0
    2.3700    1.0000    1.0000 N   0  0  0  0  0  0  0  0  0  0  0  0
    3.1050   -0.2731    1.0000 C   0  0  0  0  0  0  0  0  0  0  0  0
    3.3582   -0.7117   -0.4325 C   0  0  0  0  0  0  0  0  0  0  0  0
    4.5242   -0.2982   -1.0686 C   0  0  0  0  0  0  0  0  0  0  0  0
    4.7545   -0.7014   -2.3793 C   0  0  0  0  0  0  0  0  0  0  0  0
    5.9374   -0.2903   -3.0488 O   0  0  0  0  0  0  0  0  0  0  0  0
    3.8336   -1.5048   -3.0439 C   0  0  0  0  0  0  0  0  0  0  0  0
    2.6703   -1.9110   -2.3973 C   0  0  0  0  0  0  0  0  0  0  0  0
    2.4291   -1.5151   -1.0858 C   0  0  0  0  0  0  0  0  0  0  0  0
    4.4331   -0.0913    1.7165 C   0  0  0  0  0  0  0  0  0  0  0  0
    3.1050    2.2731    1.0000 C   0  0  0  0  0  0  0  0  0  0  0  0
    0.3150    2.1865    1.0000 N   0  0  0  0  0  0  0  0  0  0  0  0
   -1.1575    2.1865    1.0000 C   0  0  0  0  0  0  0  0  0  0  0  0
   -1.6732    2.1865    2.4299 C   0  0  0  0  0  0  0  0  0  0  0  0
   -3.1931    2.2112    2.4211 C   0  0  0  0  0  0  0  0  0  0  0  0
   -3.6882    3.3902    1.6937 N   0  0  0  0  0  0  0  0  0  0  0  0
   -3.1940    3.4283    0.3094 C   0  0  0  0  0  0  0  0  0  0  0  0
   -1.6738    3.4257    0.2864 C   0  0  0  0  0  0  0  0  0  0  0  0
   -5.1574    3.4017    1.6486 C   0  0  0  0  0  0  0  0  0  0  0  0
   -5.6314    4.6313    0.8910 C   0  0  0  0  0  0  0  0  0  0  0  0
   -3.6739    2.2125    3.8631 C   0  0  0  0  0  0  0  0  0  0  0  0
  1  2  2  0
  2  3  1  0
  3  4  1  0
  4  5  1  0
  5  6  2  0
  6  7  1  0
  7  8  1  0
  7  9  2  0
  9 10  1  0
 10 11  2  0
 11  5  1  0
  4 12  1  0
  3 13  1  0
  2 14  1  0
 14 15  1  0
 15 16  1  0
 16 17  1  0
 17 18  1  0
 18 19  1  0
 19 20  1  0
 20 15  1  0
 18 21  1  0
 21 22  1  0
 17 23  1  0
M  CHG  1  18   1
M  END
$$$$
s_270006a____11615602____8408010
     RDKit          3D

 23 24  0  0  0  0  0  0  0  0999 V2000
    2.7405    0.6173   -0.5487 O   0  0  0  0  0  0  0  0  0  0  0  0
    1.8776    0.1224    0.1224 C   0  0  0  0  0  0  0  0  0  0  0  0
    1.6833   -1.2335    0.0977 N   0  0  0  0  0  0  0  0  0  0  0  0
    2.5321   -2.0823   -0.7511 C   0  0  0  0  0  0  0  0  0  0  0  0
    1.6976   -2.8405   -1.7713 C   0  0  0  0  0  0  0  0  0  0  0  0
    2.5531   -3.7062   -2.5974 N   0  0  0  0  0  0  0  0  0  0  0  0
    3.2948   -4.6789   -1.7816 C   0  0  0  0  0  0  0  0  0  0  0  0
    4.1595   -3.9593   -0.7591 C   0  0  0  0  0  0  0  0  0  0  0  0
    3.2828   -3.0788    0.1172 C   0  0  0  0  0  0  0  0  0  0  0  0
    0.9479   -1.8371   -2.6333 C   0  0  0  0  0  0  0  0  0  0  0  0
    1.0000    1.0000    1.0000 C   0  0  0  0  0  0  0  0  0  0  0  0
    1.8776    1.8776    1.8776 C   0  0  0  0  0  0  0  0  0  0  0  0
    1.0385    2.5935    2.8494 N   0  0  0  0  0  0  0  0  0  0  0  0
    1.0211    3.9634    2.8612 C   0  0  0  0  0  0  0  0  0  0  0  0
    1.6907    4.5788    2.0783 O   0  0  0  0  0  0  0  0  0  0  0  0
    0.1535    4.7037    3.8661 C   0  0  0  0  0  0  0  0  0  0  0  0
    2.8825    1.0100    2.6179 C   0  0  0  0  0  0  0  0  0  0  0  0
    2.4323   -0.0207    3.4367 C   0  0  0  0  0  0  0  0  0  0  0  0
    3.3560   -0.8109    4.1124 C   0  0  0  0  0  0  0  0  0  0  0  0
    4.7166   -0.5626    3.9613 C   0  0  0  0  0  0  0  0  0  0  0  0
    5.1660    0.4670    3.1402 C   0  0  0  0  0  0  0  0  0  0  0  0
    4.2423    1.2583    2.4654 C   0  0  0  0  0  0  0  0  0  0  0  0
    5.7213   -1.4290    4.7038 C   0  0  0  0  0  0  0  0  0  0  0  0
  1  2  2  0
  2  3  1  0
  3  4  1  0
  4  5  1  0
  5  6  1  0
  6  7  1  0
  7  8  1  0
  8  9  1  0
  9  4  1  0
  5 10  1  0
  2 11  1  0
 11 12  1  0
 12 13  1  0
 13 14  1  0
 14 15  2  0
 14 16  1  0
 12 17  1  0
 17 18  2  0
 18 19  1  0
 19 20  2  0
 20 21  1  0
 21 22  2  0
 22 17  1  0
 20 23  1  0
M  CHG  1   6   1
M  END
$$$$
s_240690b____17037432____16478718
     RDKit          3D

 21 22  0  0  0  0  0  0  0  0999 V2000
    0.9150    1.0000    3.2257 O   0  0  0  0  0  0  0  0  0  0  0  0
    0.3150    1.0000    2.1865 C   0  0  0  0  0  0  0  0  0  0  0  0
    1.0000    1.0000    1.0000 N   0  0  0  0  0  0  0  0  0  0  0  0
    2.4700    1.0000    1.0000 C   0  0  0  0  0  0  0  0  0  0  0  0
    2.9767   -0.4113    1.2488 C   0  0  0  0  0  0  0  0  0  0  0  0
    4.3967   -0.4113    1.2488 O   0  0  0  0  0  0  0  0  0  0  0  0
    2.4700   -1.3325    0.1510 C   0  0  0  0  0  0  0  0  0  0  0  0
    2.9758   -1.2034   -1.1383 C   0  0  0  0  0  0  0  0  0  0  0  0
    2.5157   -2.0446   -2.1459 C   0  0  0  0  0  0  0  0  0  0  0  0
    1.5544   -3.0060   -1.8504 C   0  0  0  0  0  0  0  0  0  0  0  0
    1.1048   -3.8242   -2.8253 O   0  0  0  0  0  0  0  0  0  0  0  0
    1.0450   -3.1391   -0.5627 C   0  0  0  0  0  0  0  0  0  0  0  0
    1.5090   -2.2956    0.4411 C   0  0  0  0  0  0  0  0  0  0  0  0
   -1.2043    1.0000    2.1865 C   0  0  0  0  0  0  0  0  0  0  0  0
   -1.7623   -0.2252    1.4791 C   0  0  0  0  0  0  0  0  0  0  0  0
   -3.2833   -0.2114    1.4577 C   0  0  0  0  0  0  0  0  0  0  0  0
   -3.7600   -0.1829    2.8507 N   0  0  0  0  0  0  0  0  0  0  0  0
   -3.2581    0.9620    3.6277 C   0  0  0  0  0  0  0  0  0  0  0  0
   -1.7384    1.0339    3.6095 C   0  0  0  0  0  0  0  0  0  0  0  0
   -3.7558   -1.4818    0.7701 C   0  0  0  0  0  0  0  0  0  0  0  0
   -3.8287    0.9552    0.6460 C   0  0  0  0  0  0  0  0  0  0  0  0
  1  2  2  0
  2  3  1  0
  3  4  1  0
  4  5  1  0
  5  6  1  0
  5  7  1  0
  7  8  2  0
  8  9  1  0
  9 10  2  0
 10 11  1  0
 10 12  1  0
 12 13  2  0
 13  7  1  0
  2 14  1  0
 14 15  1  0
 15 16  1  0
 16 17  1  0
 17 18  1  0
 18 19  1  0
 19 14  1  0
 16 20  1  0
 16 21  1  0
M  CHG  1  17   1
M  END
$$$$
s_273652a____12626564____11610416
     RDKit          3D

 27 28  0  0  0  0  0  0  0  0999 V2000
    2.1530    1.3245   -3.0405 F   0  0  0  0  0  0  0  0  0  0  0  0
    2.7386    0.2282   -2.5672 C   0  0  0  0  0  0  0  0  0  0  0  0
    3.1956    0.2075   -1.2535 C   0  0  0  0  0  0  0  0  0  0  0  0
    3.8108   -0.9280   -0.7370 C   0  0  0  0  0  0  0  0  0  0  0  0
    3.9647   -2.0467   -1.5503 C   0  0  0  0  0  0  0  0  0  0  0  0
    3.5059   -2.0202   -2.8630 C   0  0  0  0  0  0  0  0  0  0  0  0
    3.6538   -3.0897   -3.6385 F   0  0  0  0  0  0  0  0  0  0  0  0
    2.8907   -0.8873   -3.3839 C   0  0  0  0  0  0  0  0  0  0  0  0
    3.0267    1.4309   -0.3667 C   0  0  0  0  0  0  0  0  0  0  0  0
    4.3216    2.1104   -0.2174 N   0  0  0  0  0  0  0  0  0  0  0  0
    4.4656    3.4087   -0.6306 C   0  0  0  0  0  0  0  0  0  0  0  0
    3.5347    3.9911   -1.1145 O   0  0  0  0  0  0  0  0  0  0  0  0
    5.8046    4.1113   -0.4762 C   0  0  0  0  0  0  0  0  0  0  0  0
    2.5200    1.0000    1.0000 C   0  0  0  0  0  0  0  0  0  0  0  0
    1.0000    1.0000    1.0000 C   0  0  0  0  0  0  0  0  0  0  0  0
    0.4000    1.0000   -0.0392 O   0  0  0  0  0  0  0  0  0  0  0  0
    0.3150    1.0000    2.1865 N   0  0  0  0  0  0  0  0  0  0  0  0
   -1.1579    1.0000    2.1865 C   0  0  0  0  0  0  0  0  0  0  0  0
   -1.6764    2.2383    2.9014 C   0  0  0  0  0  0  0  0  0  0  0  0
   -3.1967    2.2204    2.9167 C   0  0  0  0  0  0  0  0  0  0  0  0
   -3.7064    1.0073    3.5736 N   0  0  0  0  0  0  0  0  0  0  0  0
   -5.1780    1.0070    3.6142 C   0  0  0  0  0  0  0  0  0  0  0  0
   -5.6638    2.2210    4.3892 C   0  0  0  0  0  0  0  0  0  0  0  0
   -5.0809    2.5732    5.3893 O   0  0  0  0  0  0  0  0  0  0  0  0
   -6.6654    2.8555    3.9933 O   0  0  0  0  0  0  0  0  0  0  0  0
   -3.2057   -0.2133    2.9235 C   0  0  0  0  0  0  0  0  0  0  0  0
   -1.6855   -0.2297    2.9081 C   0  0  0  0  0  0  0  0  0  0  0  0
  1  2  1  0
  2  3  2  0
  3  4  1  0
  4  5  2  0
  5  6  1  0
  6  7  1  0
  6  8  2  0
  8  2  1  0
  3  9  1  0
  9 10  1  0
 10 11  1  0
 11 12  2  0
 11 13  1  0
  9 14  1  0
 14 15  1  0
 15 16  2  0
 15 17  1  0
 17 18  1  0
 18 19  1  0
 19 20  1  0
 20 21  1  0
 21 22  1  0
 22 23  1  0
 23 24  1  0
 23 25  2  0
 21 26  1  0
 26 27  1  0
 27 18  1  0
M  CHG  2  21   1  24  -1
M  END
$$$$
s_527a____3706250____5637264
     RDKit          3D

 27 28  0  0  0  0  0  0  0  0999 V2000
    2.0549   -0.8478   -2.5966 F   0  0  0  0  0  0  0  0  0  0  0  0
    2.5229   -1.5806   -1.5902 C   0  0  0  0  0  0  0  0  0  0  0  0
    3.0192   -0.9488   -0.4546 C   0  0  0  0  0  0  0  0  0  0  0  0
    3.5133   -1.6948    0.6103 C   0  0  0  0  0  0  0  0  0  0  0  0
    3.5058   -3.0840    0.5279 C   0  0  0  0  0  0  0  0  0  0  0  0
    3.0084   -3.7102   -0.6100 C   0  0  0  0  0  0  0  0  0  0  0  0
    3.0022   -5.0372   -0.6871 F   0  0  0  0  0  0  0  0  0  0  0  0
    2.5139   -2.9687   -1.6773 C   0  0  0  0  0  0  0  0  0  0  0  0
    3.0267    0.5691   -0.3667 C   0  0  0  0  0  0  0  0  0  0  0  0
    4.3972    1.0643   -0.5598 N   0  0  0  0  0  0  0  0  0  0  0  0
    4.6793    1.9120   -1.5984 C   0  0  0  0  0  0  0  0  0  0  0  0
    3.8076    2.2502   -2.3506 O   0  0  0  0  0  0  0  0  0  0  0  0
    6.0965    2.4241   -1.7980 C   0  0  0  0  0  0  0  0  0  0  0  0
    2.5200    1.0000    1.0000 C   0  0  0  0  0  0  0  0  0  0  0  0
    1.0000    1.0000    1.0000 C   0  0  0  0  0  0  0  0  0  0  0  0
    0.4000    1.0000   -0.0392 O   0  0  0  0  0  0  0  0  0  0  0  0
    0.3150    1.0000    2.1865 N   0  0  0  0  0  0  0  0  0  0  0  0
    1.0515    1.0000    3.4620 C   0  0  0  0  0  0  0  0  0  0  0  0
    0.6916   -0.2383    4.2685 C   0  0  0  0  0  0  0  0  0  0  0  0
    1.4384   -0.2204    5.5928 C   0  0  0  0  0  0  0  0  0  0  0  0
    1.1244    0.9927    6.3626 N   0  0  0  0  0  0  0  0  0  0  0  0
    1.8250    0.9930    7.6574 C   0  0  0  0  0  0  0  0  0  0  0  0
    1.3968   -0.2210    8.4656 C   0  0  0  0  0  0  0  0  0  0  0  0
    2.2804   -1.0990    8.8375 C   0  0  0  0  0  0  0  0  0  0  0  0
   -0.0647   -0.4084    8.8390 C   0  0  0  0  0  0  0  0  0  0  0  0
    1.4370    2.2133    5.6040 C   0  0  0  0  0  0  0  0  0  0  0  0
    0.6903    2.2297    4.2797 C   0  0  0  0  0  0  0  0  0  0  0  0
  1  2  1  0
  2  3  2  0
  3  4  1  0
  4  5  2  0
  5  6  1  0
  6  7  1  0
  6  8  2  0
  8  2  1  0
  3  9  1  0
  9 10  1  0
 10 11  1  0
 11 12  2  0
 11 13  1  0
  9 14  1  0
 14 15  1  0
 15 16  2  0
 15 17  1  0
 17 18  1  0
 18 19  1  0
 19 20  1  0
 20 21  1  0
 21 22  1  0
 22 23  1  0
 23 24  2  0
 23 25  1  0
 21 26  1  0
 26 27  1  0
 27 18  1  0
M  CHG  1  21   1
M  END
$$$$
s_22____130461____518218
     RDKit          3D

 23 24  0  0  0  0  0  0  0  0999 V2000
    5.9985   -1.6906    4.9244 Br  0  0  0  0  0  0  0  0  0  0  0  0
    4.7032   -0.5722    3.9690 C   0  0  0  0  0  0  0  0  0  0  0  0
    3.3416   -0.8163    4.1158 C   0  0  0  0  0  0  0  0  0  0  0  0
    2.4270   -0.0192    3.4352 C   0  0  0  0  0  0  0  0  0  0  0  0
    2.8824    1.0101    2.6178 C   0  0  0  0  0  0  0  0  0  0  0  0
    4.2457    1.2488    2.4756 C   0  0  0  0  0  0  0  0  0  0  0  0
    5.1661    0.4556    3.1530 C   0  0  0  0  0  0  0  0  0  0  0  0
    1.8776    1.8776    1.8776 C   0  0  0  0  0  0  0  0  0  0  0  0
    1.0385    2.5935    2.8494 N   0  0  0  0  0  0  0  0  0  0  0  0
    1.0211    3.9634    2.8612 C   0  0  0  0  0  0  0  0  0  0  0  0
    1.6907    4.5788    2.0783 O   0  0  0  0  0  0  0  0  0  0  0  0
    0.2391    4.6306    3.7669 N   0  0  0  0  0  0  0  0  0  0  0  0
    1.0000    1.0000    1.0000 C   0  0  0  0  0  0  0  0  0  0  0  0
    1.8776    0.1224    0.1224 C   0  0  0  0  0  0  0  0  0  0  0  0
    2.9191    0.5450   -0.2979 O   0  0  0  0  0  0  0  0  0  0  0  0
    1.4795   -1.1510   -0.1886 N   0  0  0  0  0  0  0  0  0  0  0  0
    2.3299   -2.0014   -1.0390 C   0  0  0  0  0  0  0  0  0  0  0  0
    1.5712   -2.4025   -2.2947 C   0  0  0  0  0  0  0  0  0  0  0  0
    2.4470   -3.2978   -3.1568 C   0  0  0  0  0  0  0  0  0  0  0  0
    2.8701   -4.4967   -2.4176 N   0  0  0  0  0  0  0  0  0  0  0  0
    3.5874   -4.1478   -1.1820 C   0  0  0  0  0  0  0  0  0  0  0  0
    2.7277   -3.2643   -0.2920 C   0  0  0  0  0  0  0  0  0  0  0  0
    3.6927   -5.3766   -3.2641 C   0  0  0  0  0  0  0  0  0  0  0  0
  1  2  1  0
  2  3  2  0
  3  4  1  0
  4  5  2  0
  5  6  1  0
  6  7  2  0
  7  2  1  0
  5  8  1  0
  8  9  1  0
  9 10  1  0
 10 11  2  0
 10 12  1  0
  8 13  1  0
 13 14  1  0
 14 15  2  0
 14 16  1  0
 16 17  1  0
 17 18  1  0
 18 19  1  0
 19 20  1  0
 20 21  1  0
 21 22  1  0
 22 17  1  0
 20 23  1  0
M  CHG  1  20   1
M  END
$$$$
m_272310____13246668____14588568
     RDKit          3D

 25 26  0  0  0  0  0  0  0  0999 V2000
    4.0547    2.7087    0.5722 O   0  0  0  0  0  0  0  0  0  0  0  0
    2.9767    2.2411    0.2835 C   0  0  0  0  0  0  0  0  0  0  0  0
    2.2797    2.7786   -0.6041 O   0  0  0  0  0  0  0  0  0  0  0  0
    2.4700    1.0000    1.0000 C   0  0  0  0  0  0  0  0  0  0  0  0
    1.0000    1.0000    1.0000 N   0  0  0  0  0  0  0  0  0  0  0  0
    0.3150    1.0000    2.1865 C   0  0  0  0  0  0  0  0  0  0  0  0
    0.9150    1.0000    3.2257 O   0  0  0  0  0  0  0  0  0  0  0  0
   -1.0550    1.0000    2.1865 N   0  0  0  0  0  0  0  0  0  0  0  0
   -1.7913    1.0000    3.4617 C   0  0  0  0  0  0  0  0  0  0  0  0
   -2.6682    2.2383    3.5508 C   0  0  0  0  0  0  0  0  0  0  0  0
   -3.4430    2.2184    4.8585 C   0  0  0  0  0  0  0  0  0  0  0  0
   -4.2598    0.9989    4.9586 N   0  0  0  0  0  0  0  0  0  0  0  0
   -3.4418   -0.2190    4.8603 C   0  0  0  0  0  0  0  0  0  0  0  0
   -2.6698   -0.2376    3.5506 C   0  0  0  0  0  0  0  0  0  0  0  0
   -4.9837    0.9541    6.2377 C   0  0  0  0  0  0  0  0  0  0  0  0
   -4.3089    3.4667    4.9138 C   0  0  0  0  0  0  0  0  0  0  0  0
    2.9767   -0.2411    0.2835 C   0  0  0  0  0  0  0  0  0  0  0  0
    4.4851   -0.3381    0.4434 C   0  0  0  0  0  0  0  0  0  0  0  0
    5.0161   -0.8889    1.6051 C   0  0  0  0  0  0  0  0  0  0  0  0
    6.3958   -0.9805    1.7555 C   0  0  0  0  0  0  0  0  0  0  0  0
    7.2281   -0.5197    0.7403 C   0  0  0  0  0  0  0  0  0  0  0  0
    8.5676   -0.6063    0.8823 O   0  0  0  0  0  0  0  0  0  0  0  0
    9.4239   -0.0429   -0.1004 C   0  0  0  0  0  0  0  0  0  0  0  0
    6.7022    0.0323   -0.4233 C   0  0  0  0  0  0  0  0  0  0  0  0
    5.3218    0.1210   -0.5687 C   0  0  0  0  0  0  0  0  0  0  0  0
  1  2  1  0
  2  3  2  0
  2  4  1  0
  4  5  1  0
  5  6  1  0
  6  7  2  0
  6  8  1  0
  8  9  1  0
  9 10  1  0
 10 11  1  0
 11 12  1  0
 12 13  1  0
 13 14  1  0
 14  9  1  0
 12 15  1  0
 11 16  1  0
  4 17  1  0
 17 18  1  0
 18 19  2  0
 19 20  1  0
 20 21  2  0
 21 22  1  0
 22 23  1  0
 21 24  1  0
 24 25  2  0
 25 18  1  0
M  CHG  2   1  -1  12   1
M  END
$$$$
s_2708____5730620____10861350
     RDKit          3D

 25 26  0  0  0  0  0  0  0  0999 V2000
    0.0805    2.8064    2.8064 O   0  0  0  0  0  0  0  0  0  0  0  0
    1.2755    2.7286    2.7286 C   0  0  0  0  0  0  0  0  0  0  0  0
    1.8487    1.8487    1.8487 N   0  0  0  0  0  0  0  0  0  0  0  0
    1.0000    1.0000    1.0000 C   0  0  0  0  0  0  0  0  0  0  0  0
    0.7076    1.7205   -0.3054 C   0  0  0  0  0  0  0  0  0  0  0  0
    1.5710    1.5439   -1.3816 C   0  0  0  0  0  0  0  0  0  0  0  0
    1.3012    2.2034   -2.5756 C   0  0  0  0  0  0  0  0  0  0  0  0
    2.1695    2.0388   -3.6870 O   0  0  0  0  0  0  0  0  0  0  0  0
    1.8960    2.7113   -4.9074 C   0  0  0  0  0  0  0  0  0  0  0  0
    2.5768    4.0703   -4.9006 C   0  0  0  0  0  0  0  0  0  0  0  0
    0.1861    3.0271   -2.6918 C   0  0  0  0  0  0  0  0  0  0  0  0
   -0.6695    3.1968   -1.6077 C   0  0  0  0  0  0  0  0  0  0  0  0
   -0.4109    2.5415   -0.4082 C   0  0  0  0  0  0  0  0  0  0  0  0
    3.3125    1.7533    1.7533 C   0  0  0  0  0  0  0  0  0  0  0  0
    3.8170    2.7338    0.7071 C   0  0  0  0  0  0  0  0  0  0  0  0
    5.2310    2.6417    0.6150 O   0  0  0  0  0  0  0  0  0  0  0  0
    2.0664    3.5195    3.5195 N   0  0  0  0  0  0  0  0  0  0  0  0
    1.4503    4.4652    4.4652 C   0  0  0  0  0  0  0  0  0  0  0  0
    1.2345    3.7853    5.8074 C   0  0  0  0  0  0  0  0  0  0  0  0
    0.6210    4.7750    6.7848 C   0  0  0  0  0  0  0  0  0  0  0  0
    1.4846    5.9561    6.9372 N   0  0  0  0  0  0  0  0  0  0  0  0
    1.7260    6.6289    5.6522 C   0  0  0  0  0  0  0  0  0  0  0  0
    2.3598    5.6680    4.6589 C   0  0  0  0  0  0  0  0  0  0  0  0
    0.8803    6.9350    7.8523 C   0  0  0  0  0  0  0  0  0  0  0  0
    0.4211    4.0645    8.1135 C   0  0  0  0  0  0  0  0  0  0  0  0
  1  2  2  0
  2  3  1  0
  3  4  1  0
  4  5  1  0
  5  6  2  0
  6  7  1  0
  7  8  1  0
  8  9  1  0
  9 10  1  0
  7 11  2  0
 11 12  1  0
 12 13  2  0
 13  5  1  0
  3 14  1  0
 14 15  1  0
 15 16  1  0
  2 17  1  0
 17 18  1  0
 18 19  1  0
 19 20  1  0
 20 21  1  0
 21 22  1  0
 22 23  1  0
 23 18  1  0
 21 24  1  0
 20 25  1  0
M  CHG  1  21   1
M  END
$$$$
s_22____4974230____17318518
     RDKit          3D

 28 29  0  0  0  0  0  0  0  0999 V2000
   -2.8437   -2.6207    2.1885 Br  0  0  0  0  0  0  0  0  0  0  0  0
   -2.0512   -0.8314    2.2953 C   0  0  0  0  0  0  0  0  0  0  0  0
   -0.8563   -0.5677    1.6347 C   0  0  0  0  0  0  0  0  0  0  0  0
   -0.3061    0.7074    1.7209 C   0  0  0  0  0  0  0  0  0  0  0  0
   -0.9328    1.7098    2.4535 C   0  0  0  0  0  0  0  0  0  0  0  0
   -2.1271    1.4243    3.1070 C   0  0  0  0  0  0  0  0  0  0  0  0
   -2.6941    0.1563    3.0338 C   0  0  0  0  0  0  0  0  0  0  0  0
    1.0000    1.0000    1.0000 C   0  0  0  0  0  0  0  0  0  0  0  0
    1.8487    1.8487    1.8487 N   0  0  0  0  0  0  0  0  0  0  0  0
    3.0831    1.4052    2.2442 C   0  0  0  0  0  0  0  0  0  0  0  0
    3.4716    0.3240    1.8978 O   0  0  0  0  0  0  0  0  0  0  0  0
    3.8395    2.1616    3.0005 O   0  0  0  0  0  0  0  0  0  0  0  0
    5.1190    1.7019    3.4104 C   0  0  0  0  0  0  0  0  0  0  0  0
    4.9639    0.4196    4.2118 C   0  0  0  0  0  0  0  0  0  0  0  0
    5.9772    1.4330    2.1851 C   0  0  0  0  0  0  0  0  0  0  0  0
    5.7854    2.7611    4.2732 C   0  0  0  0  0  0  0  0  0  0  0  0
    0.7075    1.7208   -0.3059 C   0  0  0  0  0  0  0  0  0  0  0  0
    0.7041    1.1116   -1.3397 O   0  0  0  0  0  0  0  0  0  0  0  0
    0.4477    3.0659   -0.3025 N   0  0  0  0  0  0  0  0  0  0  0  0
    0.1643    3.7643   -1.5676 C   0  0  0  0  0  0  0  0  0  0  0  0
   -1.2198    4.3900   -1.5123 C   0  0  0  0  0  0  0  0  0  0  0  0
   -1.4947    5.1292   -2.8119 C   0  0  0  0  0  0  0  0  0  0  0  0
   -0.4715    6.1593   -3.0488 N   0  0  0  0  0  0  0  0  0  0  0  0
    0.8826    5.5878   -3.0924 C   0  0  0  0  0  0  0  0  0  0  0  0
    1.1948    4.8587   -1.7952 C   0  0  0  0  0  0  0  0  0  0  0  0
   -0.7093    6.8538   -4.3227 C   0  0  0  0  0  0  0  0  0  0  0  0
    0.3651    7.9083   -4.5331 C   0  0  0  0  0  0  0  0  0  0  0  0
   -2.8828    5.7428   -2.7219 C   0  0  0  0  0  0  0  0  0  0  0  0
  1  2  1  0
  2  3  2  0
  3  4  1  0
  4  5  2  0
  5  6  1  0
  6  7  2  0
  7  2  1  0
  4  8  1  0
  8  9  1  0
  9 10  1  0
 10 11  2  0
 10 12  1  0
 12 13  1  0
 13 14  1  0
 13 15  1  0
 13 16  1  0
  8 17  1  0
 17 18  2  0
 17 19  1  0
 19 20  1  0
 20 21  1  0
 21 22  1  0
 22 23  1  0
 23 24  1  0
 24 25  1  0
 25 20  1  0
 23 26  1  0
 26 27  1  0
 22 28  1  0
M  CHG  1  23   1
M  END
$$$$
s_22____15076258____107338
     RDKit          3D

 26 27  0  0  0  0  0  0  0  0999 V2000
   -4.2889   -3.0344    4.0717 F   0  0  0  0  0  0  0  0  0  0  0  0
   -3.0949   -2.4729    4.2387 C   0  0  0  0  0  0  0  0  0  0  0  0
   -2.2607   -3.3571    4.7783 F   0  0  0  0  0  0  0  0  0  0  0  0
   -3.2085   -1.4212    5.0449 F   0  0  0  0  0  0  0  0  0  0  0  0
   -2.5537   -2.0223    2.8909 C   0  0  0  0  0  0  0  0  0  0  0  0
   -1.1880   -1.3685    2.9989 C   0  0  0  0  0  0  0  0  0  0  0  0
   -1.6609   -0.4092    1.9380 C   0  0  0  0  0  0  0  0  0  0  0  0
   -1.1550    1.0000    2.1865 C   0  0  0  0  0  0  0  0  0  0  0  0
    0.3150    1.0000    2.1865 N   0  0  0  0  0  0  0  0  0  0  0  0
    1.0000    1.0000    1.0000 C   0  0  0  0  0  0  0  0  0  0  0  0
    0.4000    1.0000   -0.0392 O   0  0  0  0  0  0  0  0  0  0  0  0
    2.5200    1.0000    1.0000 C   0  0  0  0  0  0  0  0  0  0  0  0
    3.0267    1.4309   -0.3667 C   0  0  0  0  0  0  0  0  0  0  0  0
    4.4967    1.4309   -0.3667 N   0  0  0  0  0  0  0  0  0  0  0  0
    5.1817    0.6294   -1.2415 C   0  0  0  0  0  0  0  0  0  0  0  0
    4.5817   -0.0727   -2.0077 O   0  0  0  0  0  0  0  0  0  0  0  0
    6.7017    0.6294   -1.2415 C   0  0  0  0  0  0  0  0  0  0  0  0
    2.5200    2.8301   -0.6769 C   0  0  0  0  0  0  0  0  0  0  0  0
    2.8191    3.8745    0.1918 C   0  0  0  0  0  0  0  0  0  0  0  0
    2.3582    5.1565   -0.0884 C   0  0  0  0  0  0  0  0  0  0  0  0
    1.6033    5.3780   -1.2359 C   0  0  0  0  0  0  0  0  0  0  0  0
    1.1538    6.6206   -1.5114 O   0  0  0  0  0  0  0  0  0  0  0  0
    0.0857    6.8019   -2.4295 C   0  0  0  0  0  0  0  0  0  0  0  0
    1.3011    4.3369   -2.1078 C   0  0  0  0  0  0  0  0  0  0  0  0
    1.7649    3.0570   -1.8230 C   0  0  0  0  0  0  0  0  0  0  0  0
   -3.0534   -0.6524    2.4793 C   0  0  0  0  0  0  0  0  0  0  0  0
  1  2  1  0
  2  3  1  0
  2  4  1  0
  2  5  1  0
  5  6  1  0
  6  7  1  0
  7  8  1  0
  8  9  1  0
  9 10  1  0
 10 11  2  0
 10 12  1  0
 12 13  1  0
 13 14  1  0
 14 15  1  0
 15 16  2  0
 15 17  1  0
 13 18  1  0
 18 19  2  0
 19 20  1  0
 20 21  2  0
 21 22  1  0
 22 23  1  0
 21 24  1  0
 24 25  2  0
 25 18  1  0
  7 26  1  0
 26  5  1  0
M  END
$$$$
s_240690b____15151100____13975068
     RDKit          3D

 25 26  0  0  0  0  0  0  0  0999 V2000
   -3.6776    0.2333   -1.7931 F   0  0  0  0  0  0  0  0  0  0  0  0
   -2.3536    0.1477   -1.8803 C   0  0  0  0  0  0  0  0  0  0  0  0
   -1.5525    0.9507   -1.0760 C   0  0  0  0  0  0  0  0  0  0  0  0
   -0.1698    0.8436   -1.1831 C   0  0  0  0  0  0  0  0  0  0  0  0
    0.4152   -0.0489   -2.0759 C   0  0  0  0  0  0  0  0  0  0  0  0
   -0.3969   -0.8476   -2.8743 C   0  0  0  0  0  0  0  0  0  0  0  0
   -1.7815   -0.7488   -2.7771 C   0  0  0  0  0  0  0  0  0  0  0  0
    0.7075    1.7208   -0.3059 C   0  0  0  0  0  0  0  0  0  0  0  0
    1.0000    1.0000    1.0000 C   0  0  0  0  0  0  0  0  0  0  0  0
    1.8487    1.8487    1.8487 N   0  0  0  0  0  0  0  0  0  0  0  0
    3.0831    1.4052    2.2442 C   0  0  0  0  0  0  0  0  0  0  0  0
    3.4716    0.3240    1.8978 O   0  0  0  0  0  0  0  0  0  0  0  0
    3.9607    2.2828    3.1218 C   0  0  0  0  0  0  0  0  0  0  0  0
    5.1033    1.6521    3.3777 F   0  0  0  0  0  0  0  0  0  0  0  0
    3.2402    2.5752    4.4271 C   0  0  0  0  0  0  0  0  0  0  0  0
    4.1401    3.4538    5.2843 C   0  0  0  0  0  0  0  0  0  0  0  0
    3.5738    3.7328    6.6749 C   0  0  0  0  0  0  0  0  0  0  0  0
    3.6214    2.5685    7.5771 N   0  0  0  0  0  0  0  0  0  0  0  0
    2.4348    1.6913    7.5710 C   0  0  0  0  0  0  0  0  0  0  0  0
    1.8469    1.4356    6.1853 C   0  0  0  0  0  0  0  0  0  0  0  0
    2.8916    1.2532    5.0929 C   0  0  0  0  0  0  0  0  0  0  0  0
   -0.3059    0.7075    1.7208 C   0  0  0  0  0  0  0  0  0  0  0  0
   -0.7943   -0.3868    1.6571 O   0  0  0  0  0  0  0  0  0  0  0  0
   -0.8981    1.6499    2.4116 O   0  0  0  0  0  0  0  0  0  0  0  0
   -2.1180    1.3766    3.0850 C   0  0  0  0  0  0  0  0  0  0  0  0
  1  2  1  0
  2  3  2  0
  3  4  1  0
  4  5  2  0
  5  6  1  0
  6  7  2  0
  7  2  1  0
  4  8  1  0
  8  9  1  0
  9 10  1  0
 10 11  1  0
 11 12  2  0
 11 13  1  0
 13 14  1  0
 13 15  1  0
 15 16  1  0
 16 17  1  0
 17 18  1  0
 18 19  1  0
 19 20  1  0
 20 21  1  0
 21 15  1  0
  9 22  1  0
 22 23  2  0
 22 24  1  0
 24 25  1  0
M  CHG  1  18   1
M  END
$$$$
s_22____14468648____3192126
     RDKit          3D

 28 29  0  0  0  0  0  0  0  0999 V2000
    1.9688    3.0524    1.6507 O   0  0  0  0  0  0  0  0  0  0  0  0
    1.8776    1.8776    1.8776 C   0  0  0  0  0  0  0  0  0  0  0  0
    2.5644    1.3273    2.9275 N   0  0  0  0  0  0  0  0  0  0  0  0
    3.4125    2.1754    3.7757 C   0  0  0  0  0  0  0  0  0  0  0  0
    4.8571    1.7008    3.7366 C   0  0  0  0  0  0  0  0  0  0  0  0
    5.7408    2.5218    4.6609 C   0  0  0  0  0  0  0  0  0  0  0  0
    4.9537    3.5989    5.3952 C   0  0  0  0  0  0  0  0  0  0  0  0
    5.8695    4.3319    6.3594 C   0  0  0  0  0  0  0  0  0  0  0  0
    5.1065    5.3706    7.0662 N   0  0  0  0  0  0  0  0  0  0  0  0
    5.9931    6.0802    7.9997 C   0  0  0  0  0  0  0  0  0  0  0  0
    4.5575    6.3241    6.0913 C   0  0  0  0  0  0  0  0  0  0  0  0
    3.8232    2.9183    6.1495 C   0  0  0  0  0  0  0  0  0  0  0  0
    2.9150    2.1341    5.2119 C   0  0  0  0  0  0  0  0  0  0  0  0
    1.0000    1.0000    1.0000 C   0  0  0  0  0  0  0  0  0  0  0  0
    0.7075    1.7208   -0.3059 C   0  0  0  0  0  0  0  0  0  0  0  0
   -0.4084    1.0554   -0.9935 N   0  0  0  0  0  0  0  0  0  0  0  0
   -1.5559    1.7512   -1.2692 C   0  0  0  0  0  0  0  0  0  0  0  0
   -1.6500    2.9040   -0.9493 O   0  0  0  0  0  0  0  0  0  0  0  0
   -2.7097    1.0632   -1.9803 C   0  0  0  0  0  0  0  0  0  0  0  0
    1.9425    1.6853   -1.1920 C   0  0  0  0  0  0  0  0  0  0  0  0
    2.3567    2.8368   -1.8543 C   0  0  0  0  0  0  0  0  0  0  0  0
    1.6733    3.9938   -1.7215 O   0  0  0  0  0  0  0  0  0  0  0  0
    2.2426    5.2113   -2.1798 C   0  0  0  0  0  0  0  0  0  0  0  0
    1.2766    6.3542   -1.9136 C   0  0  0  0  0  0  0  0  0  0  0  0
    3.4867    2.8042   -2.6654 C   0  0  0  0  0  0  0  0  0  0  0  0
    4.2026    1.6203   -2.8137 C   0  0  0  0  0  0  0  0  0  0  0  0
    3.7884    0.4693   -2.1508 C   0  0  0  0  0  0  0  0  0  0  0  0
    2.6587    0.5022   -1.3397 C   0  0  0  0  0  0  0  0  0  0  0  0
  1  2  2  0
  2  3  1  0
  3  4  1  0
  4  5  1  0
  5  6  1  0
  6  7  1  0
  7  8  1  0
  8  9  1  0
  9 10  1  0
  9 11  1  0
  7 12  1  0
 12 13  1  0
 13  4  1  0
  2 14  1  0
 14 15  1  0
 15 16  1  0
 16 17  1  0
 17 18  2  0
 17 19  1  0
 15 20  1  0
 20 21  2  0
 21 22  1  0
 22 23  1  0
 23 24  1  0
 21 25  1  0
 25 26  2  0
 26 27  1  0
 27 28  2  0
 28 20  1  0
M  CHG  1   9   1
M  END
$$$$
s_2708____12635628____13025972
     RDKit          3D

 24 25  0  0  0  0  0  0  0  0999 V2000
    3.4428    0.2028    6.3810 Br  0  0  0  0  0  0  0  0  0  0  0  0
    4.2171   -0.1640    4.6184 C   0  0  0  0  0  0  0  0  0  0  0  0
    3.4145   -0.0896    3.4854 C   0  0  0  0  0  0  0  0  0  0  0  0
    3.9790   -0.3536    2.2413 C   0  0  0  0  0  0  0  0  0  0  0  0
    5.3237   -0.6876    2.1214 C   0  0  0  0  0  0  0  0  0  0  0  0
    6.1085   -0.7570    3.2678 C   0  0  0  0  0  0  0  0  0  0  0  0
    5.5641   -0.4968    4.5210 C   0  0  0  0  0  0  0  0  0  0  0  0
    3.1050   -0.2731    1.0000 C   0  0  0  0  0  0  0  0  0  0  0  0
    2.3700    1.0000    1.0000 N   0  0  0  0  0  0  0  0  0  0  0  0
    1.0000    1.0000    1.0000 C   0  0  0  0  0  0  0  0  0  0  0  0
    0.4000   -0.0392    1.0000 O   0  0  0  0  0  0  0  0  0  0  0  0
    0.3150    2.1865    1.0000 N   0  0  0  0  0  0  0  0  0  0  0  0
   -1.1557    2.1865    1.0000 C   0  0  0  0  0  0  0  0  0  0  0  0
   -1.7133    2.8944    2.2261 C   0  0  0  0  0  0  0  0  0  0  0  0
   -3.1849    2.9033    2.2214 N   0  0  0  0  0  0  0  0  0  0  0  0
   -3.7111    3.5653    3.4256 C   0  0  0  0  0  0  0  0  0  0  0  0
   -3.2317    2.8228    4.6623 C   0  0  0  0  0  0  0  0  0  0  0  0
   -2.8564    2.2416    5.6305 C   0  0  0  0  0  0  0  0  0  0  0  0
   -3.7107    3.5522    1.0111 C   0  0  0  0  0  0  0  0  0  0  0  0
   -3.1945    2.8535   -0.2365 C   0  0  0  0  0  0  0  0  0  0  0  0
   -1.6744    2.8654   -0.2579 C   0  0  0  0  0  0  0  0  0  0  0  0
    3.9789   -0.3536   -0.2411 C   0  0  0  0  0  0  0  0  0  0  0  0
    3.1625   -0.2784   -1.4005 O   0  0  0  0  0  0  0  0  0  0  0  0
    2.7675   -1.5864   -1.7870 C   0  0  0  0  0  0  0  0  0  0  0  0
  1  2  1  0
  2  3  2  0
  3  4  1  0
  4  5  2  0
  5  6  1  0
  6  7  2  0
  7  2  1  0
  4  8  1  0
  8  9  1  0
  9 10  1  0
 10 11  2  0
 10 12  1  0
 12 13  1  0
 13 14  1  0
 14 15  1  0
 15 16  1  0
 16 17  1  0
 17 18  3  0
 15 19  1  0
 19 20  1  0
 20 21  1  0
 21 13  1  0
  8 22  1  0
 22 23  1  0
 23 24  1  0
M  CHG  1  15   1
M  END
$$$$
m_275030____14113942____14127132____14146952
     RDKit          3D

 23 24  0  0  0  0  0  0  0  0999 V2000
    0.4000    1.0000   -0.0392 O   0  0  0  0  0  0  0  0  0  0  0  0
    1.0000    1.0000    1.0000 C   0  0  0  0  0  0  0  0  0  0  0  0
    0.3150    1.0000    2.1865 N   0  0  0  0  0  0  0  0  0  0  0  0
   -1.1565    1.0000    2.1865 C   0  0  0  0  0  0  0  0  0  0  0  0
   -1.6656    2.2436    2.9044 C   0  0  0  0  0  0  0  0  0  0  0  0
   -2.9449    2.7550    2.3661 N   0  0  0  0  0  0  0  0  0  0  0  0
   -4.1317    1.9274    2.6549 C   0  0  0  0  0  0  0  0  0  0  0  0
   -3.9849    0.4787    2.2061 C   0  0  0  0  0  0  0  0  0  0  0  0
   -3.0960   -0.3436    3.1324 C   0  0  0  0  0  0  0  0  0  0  0  0
   -1.6183   -0.3439    2.7394 C   0  0  0  0  0  0  0  0  0  0  0  0
   -3.1926    4.1066    2.8836 C   0  0  0  0  0  0  0  0  0  0  0  0
   -3.2652    4.0628    4.4012 C   0  0  0  0  0  0  0  0  0  0  0  0
    2.5200    1.0000    1.0000 C   0  0  0  0  0  0  0  0  0  0  0  0
    3.0100    0.1091    2.0617 N   0  0  0  0  0  0  0  0  0  0  0  0
    3.7976    0.6082    3.0654 C   0  0  0  0  0  0  0  0  0  0  0  0
    4.0875    1.7726    3.0779 O   0  0  0  0  0  0  0  0  0  0  0  0
    4.3043   -0.3129    4.1632 C   0  0  0  0  0  0  0  0  0  0  0  0
    3.0267    0.5099   -0.3466 C   0  0  0  0  0  0  0  0  0  0  0  0
    4.5482    0.5099   -0.3466 C   0  0  0  0  0  0  0  0  0  0  0  0
    5.3561   -0.5205    0.0284 N   0  0  0  0  0  0  0  0  0  0  0  0
    6.6175   -0.1695   -0.1034 C   0  0  0  0  0  0  0  0  0  0  0  0
    6.6386    1.1139   -0.5768 N   0  0  0  0  0  0  0  0  0  0  0  0
    5.3513    1.5485   -0.7256 C   0  0  0  0  0  0  0  0  0  0  0  0
  1  2  2  0
  2  3  1  0
  3  4  1  0
  4  5  1  0
  5  6  1  0
  6  7  1  0
  7  8  1  0
  8  9  1  0
  9 10  1  0
 10  4  1  0
  6 11  1  0
 11 12  1  0
  2 13  1  0
 13 14  1  0
 14 15  1  0
 15 16  2  0
 15 17  1  0
 13 18  1  0
 18 19  1  0
 19 20  1  0
 20 21  2  0
 21 22  1  0
 22 23  1  0
 19 23  2  0
M  CHG  1   6   1
M  END
$$$$
s_240690a____7347498____12624318
     RDKit          3D

 23 24  0  0  0  0  0  0  0  0999 V2000
   -1.5369    0.0511   -3.9404 Br  0  0  0  0  0  0  0  0  0  0  0  0
   -0.6612   -0.9036   -2.4698 C   0  0  0  0  0  0  0  0  0  0  0  0
   -0.5300   -0.2867   -1.2305 C   0  0  0  0  0  0  0  0  0  0  0  0
    0.0948   -0.9775   -0.1968 C   0  0  0  0  0  0  0  0  0  0  0  0
    0.5841   -2.2650   -0.3890 C   0  0  0  0  0  0  0  0  0  0  0  0
    0.4430   -2.8633   -1.6369 C   0  0  0  0  0  0  0  0  0  0  0  0
   -0.1785   -2.1904   -2.6836 C   0  0  0  0  0  0  0  0  0  0  0  0
    0.2400   -0.3066    1.1597 C   0  0  0  0  0  0  0  0  0  0  0  0
   -1.0928   -0.0334    1.7164 N   0  0  0  0  0  0  0  0  0  0  0  0
   -1.4622   -0.5885    2.9131 C   0  0  0  0  0  0  0  0  0  0  0  0
   -0.6978   -1.2978    3.5070 O   0  0  0  0  0  0  0  0  0  0  0  0
   -2.8404   -0.3060    3.4888 C   0  0  0  0  0  0  0  0  0  0  0  0
    1.0000    1.0000    1.0000 C   0  0  0  0  0  0  0  0  0  0  0  0
    0.4000    2.0316    0.8739 O   0  0  0  0  0  0  0  0  0  0  0  0
    2.3974    1.0000    1.0000 N   0  0  0  0  0  0  0  0  0  0  0  0
    3.0942    2.2959    0.9555 C   0  0  0  0  0  0  0  0  0  0  0  0
    4.4162    2.2066    0.2057 C   0  0  0  0  0  0  0  0  0  0  0  0
    5.2334    0.9911    0.6205 C   0  0  0  0  0  0  0  0  0  0  0  0
    6.4832    0.9557   -0.2445 C   0  0  0  0  0  0  0  0  0  0  0  0
    6.1011    0.7540   -1.6495 N   0  0  0  0  0  0  0  0  0  0  0  0
    7.3096    0.7198   -2.4859 C   0  0  0  0  0  0  0  0  0  0  0  0
    4.4202   -0.2521    0.2886 C   0  0  0  0  0  0  0  0  0  0  0  0
    3.0969   -0.2949    1.0400 C   0  0  0  0  0  0  0  0  0  0  0  0
  1  2  1  0
  2  3  2  0
  3  4  1  0
  4  5  2  0
  5  6  1  0
  6  7  2  0
  7  2  1  0
  4  8  1  0
  8  9  1  0
  9 10  1  0
 10 11  2  0
 10 12  1  0
  8 13  1  0
 13 14  2  0
 13 15  1  0
 15 16  1  0
 16 17  1  0
 17 18  1  0
 18 19  1  0
 19 20  1  0
 20 21  1  0
 18 22  1  0
 22 23  1  0
 23 15  1  0
M  CHG  1  20   1
M  END
$$$$
s_527a____237627____12624300
     RDKit          3D

 24 26  0  0  0  0  0  0  0  0999 V2000
   -3.7298    2.8980    2.8227 Br  0  0  0  0  0  0  0  0  0  0  0  0
   -2.4193    1.4646    2.5602 C   0  0  0  0  0  0  0  0  0  0  0  0
   -1.2259    1.7360    1.9001 C   0  0  0  0  0  0  0  0  0  0  0  0
   -0.3061    0.7074    1.7209 C   0  0  0  0  0  0  0  0  0  0  0  0
   -0.5660   -0.5755    2.1906 C   0  0  0  0  0  0  0  0  0  0  0  0
   -1.7663   -0.8254    2.8476 C   0  0  0  0  0  0  0  0  0  0  0  0
   -2.6994    0.1886    3.0373 C   0  0  0  0  0  0  0  0  0  0  0  0
    1.0000    1.0000    1.0000 C   0  0  0  0  0  0  0  0  0  0  0  0
    0.7171    1.6971   -0.2629 N   0  0  0  0  0  0  0  0  0  0  0  0
    1.1013    1.1397   -1.4540 C   0  0  0  0  0  0  0  0  0  0  0  0
    1.6688    0.0825   -1.4663 O   0  0  0  0  0  0  0  0  0  0  0  0
    0.8088    1.8605   -2.7598 C   0  0  0  0  0  0  0  0  0  0  0  0
    1.8776    1.8776    1.8776 C   0  0  0  0  0  0  0  0  0  0  0  0
    2.7694    1.3883    2.5142 O   0  0  0  0  0  0  0  0  0  0  0  0
    1.6504    3.2271    1.9417 N   0  0  0  0  0  0  0  0  0  0  0  0
    2.5007    4.0775    2.7921 C   0  0  0  0  0  0  0  0  0  0  0  0
    1.6504    4.7761    3.8419 C   0  0  0  0  0  0  0  0  0  0  0  0
    2.5312    5.6687    4.7016 C   0  0  0  0  0  0  0  0  0  0  0  0
    3.2395    6.6632    3.8817 N   0  0  0  0  0  0  0  0  0  0  0  0
    4.0659    7.5432    4.7176 C   0  0  0  0  0  0  0  0  0  0  0  0
    5.0992    6.7679    5.4829 C   0  0  0  0  0  0  0  0  0  0  0  0
    3.8699    7.2744    6.1819 C   0  0  0  0  0  0  0  0  0  0  0  0
    4.0551    6.0245    2.8377 C   0  0  0  0  0  0  0  0  0  0  0  0
    3.1957    5.1367    1.9517 C   0  0  0  0  0  0  0  0  0  0  0  0
  1  2  1  0
  2  3  2  0
  3  4  1  0
  4  5  2  0
  5  6  1  0
  6  7  2  0
  7  2  1  0
  4  8  1  0
  8  9  1  0
  9 10  1  0
 10 11  2  0
 10 12  1  0
  8 13  1  0
 13 14  2  0
 13 15  1  0
 15 16  1  0
 16 17  1  0
 17 18  1  0
 18 19  1  0
 19 20  1  0
 20 21  1  0
 21 22  1  0
 22 20  1  0
 19 23  1  0
 23 24  1  0
 24 16  1  0
M  CHG  1  19   1
M  END
$$$$
s_2708____5730620____5904686
     RDKit          3D

 30 32  0  0  0  0  0  0  0  0999 V2000
    0.9150    1.0000    3.2257 O   0  0  0  0  0  0  0  0  0  0  0  0
    0.3150    1.0000    2.1865 C   0  0  0  0  0  0  0  0  0  0  0  0
    1.0000    1.0000    1.0000 N   0  0  0  0  0  0  0  0  0  0  0  0
    2.4700    1.0000    1.0000 C   0  0  0  0  0  0  0  0  0  0  0  0
    2.9767   -0.0133   -0.0133 C   0  0  0  0  0  0  0  0  0  0  0  0
    2.2887   -0.3248   -0.9459 O   0  0  0  0  0  0  0  0  0  0  0  0
    4.2188   -0.5711    0.1380 N   0  0  0  0  0  0  0  0  0  0  0  0
    4.8163   -1.2501   -0.9309 C   0  0  0  0  0  0  0  0  0  0  0  0
    4.6016   -2.6159   -1.0854 C   0  0  0  0  0  0  0  0  0  0  0  0
    5.1967   -3.2870   -2.1486 C   0  0  0  0  0  0  0  0  0  0  0  0
    5.9995   -2.5926   -3.0472 C   0  0  0  0  0  0  0  0  0  0  0  0
    6.2067   -1.2270   -2.8833 C   0  0  0  0  0  0  0  0  0  0  0  0
    5.6170   -0.5455   -1.8238 C   0  0  0  0  0  0  0  0  0  0  0  0
    4.9243   -0.4568    1.4226 C   0  0  0  0  0  0  0  0  0  0  0  0
    2.9767    2.3842    0.6291 C   0  0  0  0  0  0  0  0  0  0  0  0
    3.1456    3.2167    1.8900 C   0  0  0  0  0  0  0  0  0  0  0  0
    2.0829    3.9831    2.3572 C   0  0  0  0  0  0  0  0  0  0  0  0
    2.2420    4.7440    3.5108 C   0  0  0  0  0  0  0  0  0  0  0  0
    3.4564    4.7338    4.1888 C   0  0  0  0  0  0  0  0  0  0  0  0
    4.5109    3.9641    3.7131 C   0  0  0  0  0  0  0  0  0  0  0  0
    4.3646    3.1994    2.5603 C   0  0  0  0  0  0  0  0  0  0  0  0
   -1.0550    1.0000    2.1865 N   0  0  0  0  0  0  0  0  0  0  0  0
   -1.7913    1.0000    3.4617 C   0  0  0  0  0  0  0  0  0  0  0  0
   -2.6682    2.2383    3.5508 C   0  0  0  0  0  0  0  0  0  0  0  0
   -3.4430    2.2184    4.8585 C   0  0  0  0  0  0  0  0  0  0  0  0
   -4.2598    0.9989    4.9586 N   0  0  0  0  0  0  0  0  0  0  0  0
   -3.4418   -0.2190    4.8603 C   0  0  0  0  0  0  0  0  0  0  0  0
   -2.6698   -0.2376    3.5506 C   0  0  0  0  0  0  0  0  0  0  0  0
   -4.9837    0.9541    6.2377 C   0  0  0  0  0  0  0  0  0  0  0  0
   -4.3089    3.4667    4.9138 C   0  0  0  0  0  0  0  0  0  0  0  0
  1  2  2  0
  2  3  1  0
  3  4  1  0
  4  5  1  0
  5  6  2  0
  5  7  1  0
  7  8  1  0
  8  9  2  0
  9 10  1  0
 10 11  2  0
 11 12  1  0
 12 13  2  0
 13  8  1  0
  7 14  1  0
  4 15  1  0
 15 16  1  0
 16 17  2  0
 17 18  1  0
 18 19  2  0
 19 20  1  0
 20 21  2  0
 21 16  1  0
  2 22  1  0
 22 23  1  0
 23 24  1  0
 24 25  1  0
 25 26  1  0
 26 27  1  0
 27 28  1  0
 28 23  1  0
 26 29  1  0
 25 30  1  0
M  CHG  1  26   1
M  END
$$$$
s_2708____4974248____7557148
     RDKit          3D

 25 26  0  0  0  0  0  0  0  0999 V2000
    2.9700    2.0392    1.0000 O   0  0  0  0  0  0  0  0  0  0  0  0
    2.3700    1.0000    1.0000 C   0  0  0  0  0  0  0  0  0  0  0  0
    1.0000    1.0000    1.0000 N   0  0  0  0  0  0  0  0  0  0  0  0
    0.2650   -0.2731    1.0000 C   0  0  0  0  0  0  0  0  0  0  0  0
    0.0116   -0.7119    2.4334 C   0  0  0  0  0  0  0  0  0  0  0  0
   -1.1497   -0.3067    3.0830 C   0  0  0  0  0  0  0  0  0  0  0  0
   -1.3772   -0.7098    4.3948 C   0  0  0  0  0  0  0  0  0  0  0  0
   -0.4476   -1.5133    5.0467 C   0  0  0  0  0  0  0  0  0  0  0  0
    0.7086   -1.9124    4.3877 C   0  0  0  0  0  0  0  0  0  0  0  0
    0.9480   -1.5154    3.0762 C   0  0  0  0  0  0  0  0  0  0  0  0
    0.2650    2.2731    1.0000 C   0  0  0  0  0  0  0  0  0  0  0  0
    0.0117    2.7118   -0.4331 C   0  0  0  0  0  0  0  0  0  0  0  0
    1.2524    2.8816   -1.1025 O   0  0  0  0  0  0  0  0  0  0  0  0
   -0.7483    4.0282   -0.4331 C   0  0  0  0  0  0  0  0  0  0  0  0
   -1.0017    4.4670   -1.8661 C   0  0  0  0  0  0  0  0  0  0  0  0
    3.0550   -0.1865    1.0000 N   0  0  0  0  0  0  0  0  0  0  0  0
    4.5275   -0.1865    1.0000 C   0  0  0  0  0  0  0  0  0  0  0  0
    5.0432   -0.1865    2.4299 C   0  0  0  0  0  0  0  0  0  0  0  0
    6.5631   -0.2112    2.4211 C   0  0  0  0  0  0  0  0  0  0  0  0
    7.0582   -1.3902    1.6937 N   0  0  0  0  0  0  0  0  0  0  0  0
    6.5640   -1.4283    0.3094 C   0  0  0  0  0  0  0  0  0  0  0  0
    5.0438   -1.4257    0.2864 C   0  0  0  0  0  0  0  0  0  0  0  0
    8.5274   -1.4017    1.6486 C   0  0  0  0  0  0  0  0  0  0  0  0
    9.0014   -2.6313    0.8910 C   0  0  0  0  0  0  0  0  0  0  0  0
    7.0439   -0.2125    3.8631 C   0  0  0  0  0  0  0  0  0  0  0  0
  1  2  2  0
  2  3  1  0
  3  4  1  0
  4  5  1  0
  5  6  2  0
  6  7  1  0
  7  8  2  0
  8  9  1  0
  9 10  2  0
 10  5  1  0
  3 11  1  0
 11 12  1  0
 12 13  1  0
 12 14  1  0
 14 15  1  0
  2 16  1  0
 16 17  1  0
 17 18  1  0
 18 19  1  0
 19 20  1  0
 20 21  1  0
 21 22  1  0
 22 17  1  0
 20 23  1  0
 23 24  1  0
 19 25  1  0
M  CHG  1  20   1
M  END
$$$$
s_527a____7687400____17513452
     RDKit          3D

 28 30  0  0  0  0  0  0  0  0999 V2000
   -5.2817    0.7592    1.2138 O   0  0  0  0  0  0  0  0  0  0  0  0
   -5.7413    0.7256    2.3427 C   0  0  0  0  0  0  0  0  0  0  0  0
   -6.8179    0.0166    2.7242 O   0  0  0  0  0  0  0  0  0  0  0  0
   -7.0671    0.1803    4.1040 C   0  0  0  0  0  0  0  0  0  0  0  0
   -5.7059    0.5633    4.6491 C   0  0  0  0  0  0  0  0  0  0  0  0
   -5.1764    1.4443    3.5433 C   0  0  0  0  0  0  0  0  0  0  0  0
   -3.7064    1.4322    3.5046 N   0  0  0  0  0  0  0  0  0  0  0  0
   -3.1967    2.3855    2.5075 C   0  0  0  0  0  0  0  0  0  0  0  0
   -1.6764    2.3978    2.4874 C   0  0  0  0  0  0  0  0  0  0  0  0
   -1.1579    1.0000    2.1865 C   0  0  0  0  0  0  0  0  0  0  0  0
    0.3150    1.0000    2.1865 N   0  0  0  0  0  0  0  0  0  0  0  0
    1.0000    1.0000    1.0000 C   0  0  0  0  0  0  0  0  0  0  0  0
    0.4000    1.0000   -0.0392 O   0  0  0  0  0  0  0  0  0  0  0  0
    2.5200    1.0000    1.0000 C   0  0  0  0  0  0  0  0  0  0  0  0
    3.0100    1.0000   -0.3859 N   0  0  0  0  0  0  0  0  0  0  0  0
    3.7976    2.0275   -0.8340 C   0  0  0  0  0  0  0  0  0  0  0  0
    4.0875    2.9275   -0.0951 O   0  0  0  0  0  0  0  0  0  0  0  0
    4.3043    2.0275   -2.2671 C   0  0  0  0  0  0  0  0  0  0  0  0
    3.0267   -0.2411    1.7165 C   0  0  0  0  0  0  0  0  0  0  0  0
    4.5467   -0.2411    1.7165 C   0  0  0  0  0  0  0  0  0  0  0  0
    5.2311    0.3644    2.7653 C   0  0  0  0  0  0  0  0  0  0  0  0
    6.6219    0.3662    2.7699 C   0  0  0  0  0  0  0  0  0  0  0  0
    7.3116   -0.2391    1.7241 C   0  0  0  0  0  0  0  0  0  0  0  0
    8.6614   -0.2393    1.7244 O   0  0  0  0  0  0  0  0  0  0  0  0
    6.6320   -0.8457    0.6727 C   0  0  0  0  0  0  0  0  0  0  0  0
    5.2412   -0.8449    0.6734 C   0  0  0  0  0  0  0  0  0  0  0  0
   -1.6855    0.0508    3.2503 C   0  0  0  0  0  0  0  0  0  0  0  0
   -3.2057    0.0711    3.2600 C   0  0  0  0  0  0  0  0  0  0  0  0
  1  2  2  0
  2  3  1  0
  3  4  1  0
  4  5  1  0
  5  6  1  0
  6  2  1  0
  6  7  1  0
  7  8  1  0
  8  9  1  0
  9 10  1  0
 10 11  1  0
 11 12  1  0
 12 13  2  0
 12 14  1  0
 14 15  1  0
 15 16  1  0
 16 17  2  0
 16 18  1  0
 14 19  1  0
 19 20  1  0
 20 21  2  0
 21 22  1  0
 22 23  2  0
 23 24  1  0
 23 25  1  0
 25 26  2  0
 26 20  1  0
 10 27  1  0
 27 28  1  0
 28  7  1  0
M  CHG  1   7   1
M  END
$$$$
s_270006a____16467530____8412850
     RDKit          3D

 25 26  0  0  0  0  0  0  0  0999 V2000
    2.8740   -0.3713    0.5734 O   0  0  0  0  0  0  0  0  0  0  0  0
    1.8776    0.1224    0.1224 C   0  0  0  0  0  0  0  0  0  0  0  0
    1.5236   -0.1097   -1.2110 N   0  0  0  0  0  0  0  0  0  0  0  0
    2.3954   -0.9639   -2.0322 C   0  0  0  0  0  0  0  0  0  0  0  0
    2.3932   -0.5144   -3.4853 C   0  0  0  0  0  0  0  0  0  0  0  0
    1.0243   -0.2829   -3.9730 N   0  0  0  0  0  0  0  0  0  0  0  0
    0.4350    0.8368   -3.2211 C   0  0  0  0  0  0  0  0  0  0  0  0
    0.2979    0.5083   -1.7421 C   0  0  0  0  0  0  0  0  0  0  0  0
    3.0854   -1.5839   -4.3146 C   0  0  0  0  0  0  0  0  0  0  0  0
    2.3036   -2.8839   -4.2193 C   0  0  0  0  0  0  0  0  0  0  0  0
    1.0000    1.0000    1.0000 C   0  0  0  0  0  0  0  0  0  0  0  0
    1.8776    1.8776    1.8776 C   0  0  0  0  0  0  0  0  0  0  0  0
    1.0385    2.5935    2.8494 N   0  0  0  0  0  0  0  0  0  0  0  0
    1.2401    2.4132    4.1924 C   0  0  0  0  0  0  0  0  0  0  0  0
    2.1015    1.6708    4.5755 O   0  0  0  0  0  0  0  0  0  0  0  0
    0.3725    3.1535    5.1972 C   0  0  0  0  0  0  0  0  0  0  0  0
    2.6181    2.8827    1.0098 C   0  0  0  0  0  0  0  0  0  0  0  0
    3.9722    2.7066    0.7427 C   0  0  0  0  0  0  0  0  0  0  0  0
    4.6440    1.6491    1.2466 O   0  0  0  0  0  0  0  0  0  0  0  0
    6.0504    1.5542    1.0751 C   0  0  0  0  0  0  0  0  0  0  0  0
    6.5559    0.2798    1.7314 C   0  0  0  0  0  0  0  0  0  0  0  0
    4.6500    3.6264   -0.0513 C   0  0  0  0  0  0  0  0  0  0  0  0
    3.9732    4.7221   -0.5785 C   0  0  0  0  0  0  0  0  0  0  0  0
    2.6190    4.8974   -0.3117 C   0  0  0  0  0  0  0  0  0  0  0  0
    1.9416    3.9774    0.4819 C   0  0  0  0  0  0  0  0  0  0  0  0
  1  2  2  0
  2  3  1  0
  3  4  1  0
  4  5  1  0
  5  6  1  0
  6  7  1  0
  7  8  1  0
  8  3  1  0
  5  9  1  0
  9 10  1  0
  2 11  1  0
 11 12  1  0
 12 13  1  0
 13 14  1  0
 14 15  2  0
 14 16  1  0
 12 17  1  0
 17 18  2  0
 18 19  1  0
 19 20  1  0
 20 21  1  0
 18 22  1  0
 22 23  2  0
 23 24  1  0
 24 25  2  0
 25 17  1  0
M  CHG  1   6   1
M  END
$$$$
s_527a____17312416____17513452
     RDKit          3D

 22 23  0  0  0  0  0  0  0  0999 V2000
    0.4000    1.0000   -0.0392 O   0  0  0  0  0  0  0  0  0  0  0  0
    1.0000    1.0000    1.0000 C   0  0  0  0  0  0  0  0  0  0  0  0
    0.3150    1.0000    2.1865 N   0  0  0  0  0  0  0  0  0  0  0  0
   -1.1537    1.0000    2.1865 C   0  0  0  0  0  0  0  0  0  0  0  0
   -1.7063   -0.4044    2.1865 C   0  0  0  0  0  0  0  0  0  0  0  0
   -2.7627    0.1026    3.1403 C   0  0  0  0  0  0  0  0  0  0  0  0
   -3.0931   -0.9126    4.2224 C   0  0  0  0  0  0  0  0  0  0  0  0
   -2.4315   -0.9084    5.3414 C   0  0  0  0  0  0  0  0  0  0  0  0
   -1.7106    1.0899    3.5884 C   0  0  0  0  0  0  0  0  0  0  0  0
    2.5200    1.0000    1.0000 C   0  0  0  0  0  0  0  0  0  0  0  0
    3.0100    1.6930   -0.2002 N   0  0  0  0  0  0  0  0  0  0  0  0
    3.2383    3.0434   -0.1663 C   0  0  0  0  0  0  0  0  0  0  0  0
    3.0383    3.6605    0.8432 O   0  0  0  0  0  0  0  0  0  0  0  0
    3.7450    3.7599   -1.4074 C   0  0  0  0  0  0  0  0  0  0  0  0
    3.0267   -0.4331    1.0000 C   0  0  0  0  0  0  0  0  0  0  0  0
    4.5467   -0.4331    1.0000 C   0  0  0  0  0  0  0  0  0  0  0  0
    5.2311   -0.4331    2.2110 C   0  0  0  0  0  0  0  0  0  0  0  0
    6.6219   -0.4338    2.2159 C   0  0  0  0  0  0  0  0  0  0  0  0
    7.3116   -0.4351    1.0075 C   0  0  0  0  0  0  0  0  0  0  0  0
    8.7316   -0.4355    1.0077 O   0  0  0  0  0  0  0  0  0  0  0  0
    6.6320   -0.4347   -0.2063 C   0  0  0  0  0  0  0  0  0  0  0  0
    5.2412   -0.4344   -0.2053 C   0  0  0  0  0  0  0  0  0  0  0  0
  1  2  2  0
  2  3  1  0
  3  4  1  0
  4  5  1  0
  5  6  1  0
  6  7  1  0
  7  8  2  0
  6  9  1  0
  9  4  1  0
  2 10  1  0
 10 11  1  0
 11 12  1  0
 12 13  2  0
 12 14  1  0
 10 15  1  0
 15 16  1  0
 16 17  2  0
 17 18  1  0
 18 19  2  0
 19 20  1  0
 19 21  1  0
 21 22  2  0
 22 16  1  0
M  END
$$$$
s_527a____9044452____15715224
     RDKit          3D

 28 29  0  0  0  0  0  0  0  0999 V2000
    3.4716    0.3240    1.8978 O   0  0  0  0  0  0  0  0  0  0  0  0
    3.0831    1.4052    2.2442 C   0  0  0  0  0  0  0  0  0  0  0  0
    3.8395    2.1616    3.0005 O   0  0  0  0  0  0  0  0  0  0  0  0
    5.1190    1.7019    3.4104 C   0  0  0  0  0  0  0  0  0  0  0  0
    5.7854    2.7611    4.2732 C   0  0  0  0  0  0  0  0  0  0  0  0
    4.9639    0.4196    4.2118 C   0  0  0  0  0  0  0  0  0  0  0  0
    5.9772    1.4330    2.1851 C   0  0  0  0  0  0  0  0  0  0  0  0
    1.8487    1.8487    1.8487 N   0  0  0  0  0  0  0  0  0  0  0  0
    1.0000    1.0000    1.0000 C   0  0  0  0  0  0  0  0  0  0  0  0
    0.7075    1.7208   -0.3059 C   0  0  0  0  0  0  0  0  0  0  0  0
   -0.3868    1.6571   -0.7943 O   0  0  0  0  0  0  0  0  0  0  0  0
    1.6931    2.4433   -0.9252 N   0  0  0  0  0  0  0  0  0  0  0  0
    1.4100    3.1407   -2.1886 C   0  0  0  0  0  0  0  0  0  0  0  0
    1.6362    4.6291   -2.0388 C   0  0  0  0  0  0  0  0  0  0  0  0
    0.5250    5.2877   -1.3399 N   0  0  0  0  0  0  0  0  0  0  0  0
    0.8022    6.7267   -1.2256 C   0  0  0  0  0  0  0  0  0  0  0  0
   -0.7184    5.0869   -2.0979 C   0  0  0  0  0  0  0  0  0  0  0  0
    1.7220    5.0326   -3.4922 C   0  0  0  0  0  0  0  0  0  0  0  0
    2.6239    3.9802   -4.1024 C   0  0  0  0  0  0  0  0  0  0  0  0
    2.3906    2.7281   -3.2711 C   0  0  0  0  0  0  0  0  0  0  0  0
   -0.3059    0.7075    1.7208 C   0  0  0  0  0  0  0  0  0  0  0  0
   -0.0134   -0.0131    3.0262 C   0  0  0  0  0  0  0  0  0  0  0  0
    0.0421   -1.3821    3.0484 C   0  0  0  0  0  0  0  0  0  0  0  0
    0.3164   -2.0268    4.2837 C   0  0  0  0  0  0  0  0  0  0  0  0
    0.3668   -3.2454    4.3066 O   0  0  0  0  0  0  0  0  0  0  0  0
    0.5181   -1.2784    5.4141 N   0  0  0  0  0  0  0  0  0  0  0  0
    0.4598    0.0907    5.3775 C   0  0  0  0  0  0  0  0  0  0  0  0
    0.1972    0.7503    4.2049 C   0  0  0  0  0  0  0  0  0  0  0  0
  1  2  2  0
  2  3  1  0
  3  4  1  0
  4  5  1  0
  4  6  1  0
  4  7  1  0
  2  8  1  0
  8  9  1  0
  9 10  1  0
 10 11  2  0
 10 12  1  0
 12 13  1  0
 13 14  1  0
 14 15  1  0
 15 16  1  0
 15 17  1  0
 14 18  1  0
 18 19  1  0
 19 20  1  0
 20 13  1  0
  9 21  1  0
 21 22  1  0
 22 23  2  0
 23 24  1  0
 24 25  2  0
 24 26  1  0
 26 27  1  0
 27 28  2  0
 28 22  1  0
M  CHG  1  15   1
M  END
$$$$
s_2708____16644250____14595632
     RDKit          3D

 26 27  0  0  0  0  0  0  0  0999 V2000
    1.0985   -4.8264    2.9240 F   0  0  0  0  0  0  0  0  0  0  0  0
    1.5402   -3.7397    2.2968 C   0  0  0  0  0  0  0  0  0  0  0  0
    0.7843   -3.1755    1.2743 C   0  0  0  0  0  0  0  0  0  0  0  0
    1.2531   -2.0396    0.6223 C   0  0  0  0  0  0  0  0  0  0  0  0
    2.4701   -1.4820    0.9999 C   0  0  0  0  0  0  0  0  0  0  0  0
    3.2214   -2.0499    2.0232 C   0  0  0  0  0  0  0  0  0  0  0  0
    2.7575   -3.1854    2.6789 C   0  0  0  0  0  0  0  0  0  0  0  0
    2.9767   -0.2411    0.2835 C   0  0  0  0  0  0  0  0  0  0  0  0
    2.4700    1.0000    1.0000 C   0  0  0  0  0  0  0  0  0  0  0  0
    1.0000    1.0000    1.0000 N   0  0  0  0  0  0  0  0  0  0  0  0
    0.3150    1.0000    2.1865 C   0  0  0  0  0  0  0  0  0  0  0  0
    0.9150    1.0000    3.2257 O   0  0  0  0  0  0  0  0  0  0  0  0
   -1.0550    1.0000    2.1865 N   0  0  0  0  0  0  0  0  0  0  0  0
   -1.7894    1.0000    3.4585 C   0  0  0  0  0  0  0  0  0  0  0  0
   -2.6466    2.2614    3.4867 C   0  0  0  0  0  0  0  0  0  0  0  0
   -3.3126    2.5655    4.7697 N   0  0  0  0  0  0  0  0  0  0  0  0
   -3.9419    1.4272    5.4678 C   0  0  0  0  0  0  0  0  0  0  0  0
   -2.9267    0.3853    5.9335 C   0  0  0  0  0  0  0  0  0  0  0  0
   -2.7101   -0.7268    4.9941 N   0  0  0  0  0  0  0  0  0  0  0  0
   -2.5825   -0.2923    3.5905 C   0  0  0  0  0  0  0  0  0  0  0  0
   -3.7901   -1.7212    5.0648 C   0  0  0  0  0  0  0  0  0  0  0  0
   -4.3621    3.5608    4.5109 C   0  0  0  0  0  0  0  0  0  0  0  0
    2.9767    2.2411    0.2835 C   0  0  0  0  0  0  0  0  0  0  0  0
    2.5033    3.4005    0.9529 O   0  0  0  0  0  0  0  0  0  0  0  0
    4.4967    2.2411    0.2835 C   0  0  0  0  0  0  0  0  0  0  0  0
    2.4700    2.2411   -1.1496 C   0  0  0  0  0  0  0  0  0  0  0  0
  1  2  1  0
  2  3  2  0
  3  4  1  0
  4  5  2  0
  5  6  1  0
  6  7  2  0
  7  2  1  0
  5  8  1  0
  8  9  1  0
  9 10  1  0
 10 11  1  0
 11 12  2  0
 11 13  1  0
 13 14  1  0
 14 15  1  0
 15 16  1  0
 16 17  1  0
 17 18  1  0
 18 19  1  0
 19 20  1  0
 20 14  1  0
 19 21  1  0
 16 22  1  0
  9 23  1  0
 23 24  1  0
 23 25  1  0
 23 26  1  0
M  CHG  2  16   1  19   1
M  END
$$$$
s_22____11732914____12624298
     RDKit          3D

 23 24  0  0  0  0  0  0  0  0999 V2000
   -3.2033    2.2810    7.0508 Br  0  0  0  0  0  0  0  0  0  0  0  0
   -2.5991    0.9881    5.7075 C   0  0  0  0  0  0  0  0  0  0  0  0
   -2.1365    1.4403    4.4766 C   0  0  0  0  0  0  0  0  0  0  0  0
   -1.7118    0.5098    3.5333 C   0  0  0  0  0  0  0  0  0  0  0  0
   -1.7451   -0.8534    3.8067 C   0  0  0  0  0  0  0  0  0  0  0  0
   -2.2122   -1.2841    5.0442 C   0  0  0  0  0  0  0  0  0  0  0  0
   -2.6414   -0.3707    6.0013 C   0  0  0  0  0  0  0  0  0  0  0  0
   -1.2050    1.0000    2.1865 C   0  0  0  0  0  0  0  0  0  0  0  0
   -1.6950    0.1091    1.1248 N   0  0  0  0  0  0  0  0  0  0  0  0
   -2.4826    0.6082    0.1211 C   0  0  0  0  0  0  0  0  0  0  0  0
   -2.7725    1.7726    0.1086 O   0  0  0  0  0  0  0  0  0  0  0  0
   -2.9893   -0.3129   -0.9767 C   0  0  0  0  0  0  0  0  0  0  0  0
    0.3150    1.0000    2.1865 C   0  0  0  0  0  0  0  0  0  0  0  0
    0.9150    1.0000    3.2257 O   0  0  0  0  0  0  0  0  0  0  0  0
    1.0000    1.0000    1.0000 N   0  0  0  0  0  0  0  0  0  0  0  0
    2.4700    1.0000    1.0000 C   0  0  0  0  0  0  0  0  0  0  0  0
    2.9767   -0.4113    1.2488 C   0  0  0  0  0  0  0  0  0  0  0  0
    4.4967   -0.4113    1.2488 C   0  0  0  0  0  0  0  0  0  0  0  0
    5.0035    0.0790   -0.0982 C   0  0  0  0  0  0  0  0  0  0  0  0
    6.5012    0.1177   -0.2046 C   0  0  0  0  0  0  0  0  0  0  0  0
    7.4366   -0.2993    1.2522 Cl  0  0  0  0  0  0  0  0  0  0  0  0
    7.1763    1.3048   -1.3470 Cl  0  0  0  0  0  0  0  0  0  0  0  0
    5.7340   -1.0120   -0.8286 C   0  0  0  0  0  0  0  0  0  0  0  0
  1  2  1  0
  2  3  2  0
  3  4  1  0
  4  5  2  0
  5  6  1  0
  6  7  2  0
  7  2  1  0
  4  8  1  0
  8  9  1  0
  9 10  1  0
 10 11  2  0
 10 12  1  0
  8 13  1  0
 13 14  2  0
 13 15  1  0
 15 16  1  0
 16 17  1  0
 17 18  1  0
 18 19  1  0
 19 20  1  0
 20 21  1  0
 20 22  1  0
 20 23  1  0
 23 19  1  0
M  END
$$$$
s_2708____6465958____3417236
     RDKit          3D

 23 24  0  0  0  0  0  0  0  0999 V2000
    0.9150    1.0000    3.2257 O   0  0  0  0  0  0  0  0  0  0  0  0
    0.3150    1.0000    2.1865 C   0  0  0  0  0  0  0  0  0  0  0  0
   -1.0840    1.0000    2.1865 N   0  0  0  0  0  0  0  0  0  0  0  0
   -1.7939    1.0000    3.4763 C   0  0  0  0  0  0  0  0  0  0  0  0
   -3.1098    0.2384    3.4047 C   0  0  0  0  0  0  0  0  0  0  0  0
   -3.8639    0.5057    4.6383 N   0  0  0  0  0  0  0  0  0  0  0  0
   -3.0819    0.0542    5.7982 C   0  0  0  0  0  0  0  0  0  0  0  0
   -4.1213    1.9485    4.7524 C   0  0  0  0  0  0  0  0  0  0  0  0
   -3.9267    0.6242    2.1802 C   0  0  0  0  0  0  0  0  0  0  0  0
   -3.1025    0.2384    0.9602 C   0  0  0  0  0  0  0  0  0  0  0  0
   -1.7850    0.9971    0.8920 C   0  0  0  0  0  0  0  0  0  0  0  0
    1.0000    1.0000    1.0000 N   0  0  0  0  0  0  0  0  0  0  0  0
    2.4700    1.0000    1.0000 C   0  0  0  0  0  0  0  0  0  0  0  0
    2.9767   -0.3842    0.6291 C   0  0  0  0  0  0  0  0  0  0  0  0
    4.3955   -0.3998    0.6854 O   0  0  0  0  0  0  0  0  0  0  0  0
    4.8688   -1.6929    0.3389 C   0  0  0  0  0  0  0  0  0  0  0  0
    2.9767    2.0133   -0.0133 C   0  0  0  0  0  0  0  0  0  0  0  0
    1.9753    2.1370   -1.1505 C   0  0  0  0  0  0  0  0  0  0  0  0
    1.1546    3.2575   -1.2272 C   0  0  0  0  0  0  0  0  0  0  0  0
    0.2391    3.3663   -2.2689 C   0  0  0  0  0  0  0  0  0  0  0  0
    0.1502    2.3597   -3.2247 C   0  0  0  0  0  0  0  0  0  0  0  0
    0.9754    1.2452   -3.1383 C   0  0  0  0  0  0  0  0  0  0  0  0
    1.8945    1.1243   -2.1012 C   0  0  0  0  0  0  0  0  0  0  0  0
  1  2  2  0
  2  3  1  0
  3  4  1  0
  4  5  1  0
  5  6  1  0
  6  7  1  0
  6  8  1  0
  5  9  1  0
  9 10  1  0
 10 11  1  0
 11  3  1  0
  2 12  1  0
 12 13  1  0
 13 14  1  0
 14 15  1  0
 15 16  1  0
 13 17  1  0
 17 18  1  0
 18 19  2  0
 19 20  1  0
 20 21  2  0
 21 22  1  0
 22 23  2  0
 23 18  1  0
M  CHG  1   6   1
M  END
$$$$
s_22____15426814____17513450
     RDKit          3D

 27 29  0  0  0  0  0  0  0  0999 V2000
    0.4000   -0.0392    1.0000 O   0  0  0  0  0  0  0  0  0  0  0  0
    1.0000    1.0000    1.0000 C   0  0  0  0  0  0  0  0  0  0  0  0
    2.3700    1.0000    1.0000 N   0  0  0  0  0  0  0  0  0  0  0  0
    3.1050   -0.2731    1.0000 C   0  0  0  0  0  0  0  0  0  0  0  0
    3.1428   -0.8360   -0.4106 C   0  0  0  0  0  0  0  0  0  0  0  0
    1.8238   -1.0722   -0.9119 O   0  0  0  0  0  0  0  0  0  0  0  0
    1.7890   -0.8316   -2.3014 C   0  0  0  0  0  0  0  0  0  0  0  0
    3.2304   -0.5409   -2.6921 C   0  0  0  0  0  0  0  0  0  0  0  0
    3.3036    0.3765   -3.9040 C   0  0  0  0  0  0  0  0  0  0  0  0
    2.6544   -0.2414   -5.0054 O   0  0  0  0  0  0  0  0  0  0  0  0
    3.5919    0.1923   -1.4248 C   0  0  0  0  0  0  0  0  0  0  0  0
    4.0273   -1.8147   -2.9418 C   0  0  0  0  0  0  0  0  0  0  0  0
    3.8649   -2.8260   -1.8155 C   0  0  0  0  0  0  0  0  0  0  0  0
    3.9279   -2.1407   -0.4585 C   0  0  0  0  0  0  0  0  0  0  0  0
    0.2400    2.3164    1.0000 C   0  0  0  0  0  0  0  0  0  0  0  0
   -1.2052    2.0477    1.0000 N   0  0  0  0  0  0  0  0  0  0  0  0
   -1.9871    2.5058    2.0275 C   0  0  0  0  0  0  0  0  0  0  0  0
   -1.4922    3.1263    2.9275 O   0  0  0  0  0  0  0  0  0  0  0  0
   -3.4815    2.2281    2.0275 C   0  0  0  0  0  0  0  0  0  0  0  0
    0.6072    3.1134   -0.2411 C   0  0  0  0  0  0  0  0  0  0  0  0
   -0.1528    4.4298   -0.2411 C   0  0  0  0  0  0  0  0  0  0  0  0
    0.4132    5.5469    0.3644 C   0  0  0  0  0  0  0  0  0  0  0  0
   -0.2782    6.7537    0.3662 C   0  0  0  0  0  0  0  0  0  0  0  0
   -1.5287    6.8280   -0.2391 C   0  0  0  0  0  0  0  0  0  0  0  0
   -2.2034    7.9972   -0.2393 O   0  0  0  0  0  0  0  0  0  0  0  0
   -2.0995    5.7138   -0.8457 C   0  0  0  0  0  0  0  0  0  0  0  0
   -1.4035    4.5097   -0.8449 C   0  0  0  0  0  0  0  0  0  0  0  0
  1  2  2  0
  2  3  1  0
  3  4  1  0
  4  5  1  0
  5  6  1  0
  6  7  1  0
  7  8  1  0
  8  9  1  0
  9 10  1  0
  8 11  1  0
 11  5  1  0
  8 12  1  0
 12 13  1  0
 13 14  1  0
 14  5  1  0
  2 15  1  0
 15 16  1  0
 16 17  1  0
 17 18  2  0
 17 19  1  0
 15 20  1  0
 20 21  1  0
 21 22  2  0
 22 23  1  0
 23 24  2  0
 24 25  1  0
 24 26  1  0
 26 27  2  0
 27 21  1  0
M  END
$$$$
s_2230a____12360302____666216
     RDKit          3D

 25 26  0  0  0  0  0  0  0  0999 V2000
    0.4000    1.0000   -0.0392 O   0  0  0  0  0  0  0  0  0  0  0  0
    1.0000    1.0000    1.0000 C   0  0  0  0  0  0  0  0  0  0  0  0
    0.3150    1.0000    2.1865 N   0  0  0  0  0  0  0  0  0  0  0  0
   -1.1550    1.0000    2.1865 C   0  0  0  0  0  0  0  0  0  0  0  0
   -1.6617    1.7165    3.4275 C   0  0  0  0  0  0  0  0  0  0  0  0
   -1.8617    1.0994    4.4370 O   0  0  0  0  0  0  0  0  0  0  0  0
   -1.9150    3.2148    3.3899 C   0  0  0  0  0  0  0  0  0  0  0  0
   -1.6617   -0.4331    2.1865 C   0  0  0  0  0  0  0  0  0  0  0  0
   -3.1359   -0.4493    1.8155 C   0  0  0  0  0  0  0  0  0  0  0  0
   -3.5267   -0.0924    0.5291 C   0  0  0  0  0  0  0  0  0  0  0  0
   -4.8768   -0.1078    0.1941 C   0  0  0  0  0  0  0  0  0  0  0  0
   -5.8244   -0.4796    1.1419 C   0  0  0  0  0  0  0  0  0  0  0  0
   -5.4224   -0.8347    2.4237 C   0  0  0  0  0  0  0  0  0  0  0  0
   -4.0755   -0.8227    2.7712 C   0  0  0  0  0  0  0  0  0  0  0  0
    2.5200    1.0000    1.0000 C   0  0  0  0  0  0  0  0  0  0  0  0
    3.0099   -0.3858    1.0000 N   0  0  0  0  0  0  0  0  0  0  0  0
    2.5342   -1.1069   -0.1933 C   0  0  0  0  0  0  0  0  0  0  0  0
    3.1139   -2.5126   -0.2598 C   0  0  0  0  0  0  0  0  0  0  0  0
    4.6333   -2.5217   -0.1794 C   0  0  0  0  0  0  0  0  0  0  0  0
    5.1137   -3.9107   -0.1511 N   0  0  0  0  0  0  0  0  0  0  0  0
    6.5816   -3.9200   -0.0734 C   0  0  0  0  0  0  0  0  0  0  0  0
    4.5566   -4.5980    1.0228 C   0  0  0  0  0  0  0  0  0  0  0  0
    5.0241   -1.8154    1.1106 C   0  0  0  0  0  0  0  0  0  0  0  0
    4.4732   -0.3987    1.1629 C   0  0  0  0  0  0  0  0  0  0  0  0
    5.2650   -1.8612   -1.3939 C   0  0  0  0  0  0  0  0  0  0  0  0
  1  2  2  0
  2  3  1  0
  3  4  1  0
  4  5  1  0
  5  6  2  0
  5  7  1  0
  4  8  1  0
  8  9  1  0
  9 10  2  0
 10 11  1  0
 11 12  2  0
 12 13  1  0
 13 14  2  0
 14  9  1  0
  2 15  1  0
 15 16  1  0
 16 17  1  0
 17 18  1  0
 18 19  1  0
 19 20  1  0
 20 21  1  0
 20 22  1  0
 19 23  1  0
 23 24  1  0
 24 16  1  0
 19 25  1  0
M  CHG  2  16   1  20   1
M  END
$$$$
s_527a____10809004____217437
     RDKit          3D

 26 28  0  0  0  0  0  0  0  0999 V2000
    2.2240    0.5109   -0.9588 O   0  0  0  0  0  0  0  0  0  0  0  0
    1.8776    0.1224    0.1224 C   0  0  0  0  0  0  0  0  0  0  0  0
    2.2731   -1.1120    0.5659 N   0  0  0  0  0  0  0  0  0  0  0  0
    3.1212   -1.9602   -0.2823 C   0  0  0  0  0  0  0  0  0  0  0  0
    4.6095   -1.7409   -0.0630 C   0  0  0  0  0  0  0  0  0  0  0  0
    5.3509   -2.6542   -1.0253 C   0  0  0  0  0  0  0  0  0  0  0  0
    5.0938   -4.0693   -0.7593 N   0  0  0  0  0  0  0  0  0  0  0  0
    3.6921   -4.1537   -1.1671 C   0  0  0  0  0  0  0  0  0  0  0  0
    2.7648   -3.4360   -0.1965 C   0  0  0  0  0  0  0  0  0  0  0  0
    3.7496   -3.5420   -2.5529 C   0  0  0  0  0  0  0  0  0  0  0  0
    4.8037   -2.4554   -2.4284 C   0  0  0  0  0  0  0  0  0  0  0  0
    5.9716   -4.9605   -1.5315 C   0  0  0  0  0  0  0  0  0  0  0  0
    1.0000    1.0000    1.0000 C   0  0  0  0  0  0  0  0  0  0  0  0
    1.8776    1.8776    1.8776 C   0  0  0  0  0  0  0  0  0  0  0  0
    2.7263    1.0289    2.7263 N   0  0  0  0  0  0  0  0  0  0  0  0
    3.9607    0.6334    2.2828 C   0  0  0  0  0  0  0  0  0  0  0  0
    4.3491    0.9798    1.2016 O   0  0  0  0  0  0  0  0  0  0  0  0
    4.8383   -0.2442    3.1604 C   0  0  0  0  0  0  0  0  0  0  0  0
    1.0000    2.7552    2.7552 C   0  0  0  0  0  0  0  0  0  0  0  0
    0.6049    2.2940    4.0066 C   0  0  0  0  0  0  0  0  0  0  0  0
   -0.1975    3.0939    4.8134 C   0  0  0  0  0  0  0  0  0  0  0  0
   -0.5947    4.3470    4.3576 C   0  0  0  0  0  0  0  0  0  0  0  0
   -1.4142    5.1669    5.1777 O   0  0  0  0  0  0  0  0  0  0  0  0
   -1.8231    6.4469    4.7187 C   0  0  0  0  0  0  0  0  0  0  0  0
   -0.2026    4.8128    3.1068 C   0  0  0  0  0  0  0  0  0  0  0  0
    0.6001    4.0090    2.3044 C   0  0  0  0  0  0  0  0  0  0  0  0
  1  2  2  0
  2  3  1  0
  3  4  1  0
  4  5  1  0
  5  6  1  0
  6  7  1  0
  7  8  1  0
  8  9  1  0
  9  4  1  0
  8 10  1  0
 10 11  1  0
 11  6  1  0
  7 12  1  0
  2 13  1  0
 13 14  1  0
 14 15  1  0
 15 16  1  0
 16 17  2  0
 16 18  1  0
 14 19  1  0
 19 20  2  0
 20 21  1  0
 21 22  2  0
 22 23  1  0
 23 24  1  0
 22 25  1  0
 25 26  2  0
 26 19  1  0
M  CHG  1   7   1
M  END
$$$$
s_11a____13221506____16717356
     RDKit          3D

 31 33  0  0  0  0  0  0  0  0999 V2000
    3.9272   -0.8352    0.7118 O   0  0  0  0  0  0  0  0  0  0  0  0
    2.9767   -0.2411    0.2835 C   0  0  0  0  0  0  0  0  0  0  0  0
    2.3481   -0.6814   -0.8514 N   0  0  0  0  0  0  0  0  0  0  0  0
    2.8380   -1.8814   -1.5442 C   0  0  0  0  0  0  0  0  0  0  0  0
    3.2409   -1.5135   -2.9644 C   0  0  0  0  0  0  0  0  0  0  0  0
    3.6571   -2.7545   -3.7435 C   0  0  0  0  0  0  0  0  0  0  0  0
    2.5703   -3.8182   -3.7542 C   0  0  0  0  0  0  0  0  0  0  0  0
    3.0664   -5.0102   -4.4568 N   0  0  0  0  0  0  0  0  0  0  0  0
    4.2478   -5.5609   -3.8064 C   0  0  0  0  0  0  0  0  0  0  0  0
    4.7710   -5.8470   -5.1981 C   0  0  0  0  0  0  0  0  0  0  0  0
    3.9464   -4.6381   -5.5609 C   0  0  0  0  0  0  0  0  0  0  0  0
    2.2459   -4.1810   -2.3111 C   0  0  0  0  0  0  0  0  0  0  0  0
    1.7944   -2.9848   -1.4891 C   0  0  0  0  0  0  0  0  0  0  0  0
    1.3341   -3.3473   -4.5055 C   0  0  0  0  0  0  0  0  0  0  0  0
    2.4700    1.0000    1.0000 C   0  0  0  0  0  0  0  0  0  0  0  0
    1.0000    1.0000    1.0000 N   0  0  0  0  0  0  0  0  0  0  0  0
    0.3150    1.0000    2.1865 C   0  0  0  0  0  0  0  0  0  0  0  0
    0.9150    1.0000    3.2257 O   0  0  0  0  0  0  0  0  0  0  0  0
   -1.2050    1.0000    2.1865 C   0  0  0  0  0  0  0  0  0  0  0  0
   -1.6950    1.0000    3.5724 N   0  0  0  0  0  0  0  0  0  0  0  0
   -3.0419    1.0000    3.8227 C   0  0  0  0  0  0  0  0  0  0  0  0
   -3.8217    1.0000    2.9106 O   0  0  0  0  0  0  0  0  0  0  0  0
   -3.5486    1.0000    5.2558 C   0  0  0  0  0  0  0  0  0  0  0  0
    2.9767    2.2411    0.2835 C   0  0  0  0  0  0  0  0  0  0  0  0
    4.4967    2.2411    0.2835 C   0  0  0  0  0  0  0  0  0  0  0  0
    5.1811    1.6356   -0.7653 C   0  0  0  0  0  0  0  0  0  0  0  0
    6.5719    1.6338   -0.7699 C   0  0  0  0  0  0  0  0  0  0  0  0
    7.2616    2.2391    0.2759 C   0  0  0  0  0  0  0  0  0  0  0  0
    8.6114    2.2393    0.2756 O   0  0  0  0  0  0  0  0  0  0  0  0
    6.5820    2.8457    1.3273 C   0  0  0  0  0  0  0  0  0  0  0  0
    5.1912    2.8449    1.3266 C   0  0  0  0  0  0  0  0  0  0  0  0
  1  2  2  0
  2  3  1  0
  3  4  1  0
  4  5  1  0
  5  6  1  0
  6  7  1  0
  7  8  1  0
  8  9  1  0
  9 10  1  0
 10 11  1  0
 11  8  1  0
  7 12  1  0
 12 13  1  0
 13  4  1  0
  7 14  1  0
  2 15  1  0
 15 16  1  0
 16 17  1  0
 17 18  2  0
 17 19  1  0
 19 20  1  0
 20 21  1  0
 21 22  2  0
 21 23  1  0
 15 24  1  0
 24 25  1  0
 25 26  2  0
 26 27  1  0
 27 28  2  0
 28 29  1  0
 28 30  1  0
 30 31  2  0
 31 25  1  0
M  CHG  1   8   1
M  END
$$$$
s_22____4351286____17064022
     RDKit          3D

 29 30  0  0  0  0  0  0  0  0999 V2000
    0.5242    2.9067   -0.3086 O   0  0  0  0  0  0  0  0  0  0  0  0
    0.7075    1.7208   -0.3059 C   0  0  0  0  0  0  0  0  0  0  0  0
    0.6519    1.0018   -1.5044 N   0  0  0  0  0  0  0  0  0  0  0  0
    0.1501    1.6814   -2.7108 C   0  0  0  0  0  0  0  0  0  0  0  0
    0.8301    1.1883   -3.9813 C   0  0  0  0  0  0  0  0  0  0  0  0
    0.9703   -0.3270   -4.0319 C   0  0  0  0  0  0  0  0  0  0  0  0
    1.7416   -0.6701   -5.2363 N   0  0  0  0  0  0  0  0  0  0  0  0
    1.8022   -2.1318   -5.3796 C   0  0  0  0  0  0  0  0  0  0  0  0
    0.3929   -2.6874   -5.5052 C   0  0  0  0  0  0  0  0  0  0  0  0
    2.5993   -2.4863   -6.6243 C   0  0  0  0  0  0  0  0  0  0  0  0
    1.0891   -0.0885   -6.4182 C   0  0  0  0  0  0  0  0  0  0  0  0
    1.7637   -0.7902   -2.8176 C   0  0  0  0  0  0  0  0  0  0  0  0
    1.1081   -0.3982   -1.5000 C   0  0  0  0  0  0  0  0  0  0  0  0
    1.0000    1.0000    1.0000 C   0  0  0  0  0  0  0  0  0  0  0  0
    1.8487    1.8487    1.8487 N   0  0  0  0  0  0  0  0  0  0  0  0
    3.0831    1.4052    2.2442 C   0  0  0  0  0  0  0  0  0  0  0  0
    3.4716    0.3240    1.8978 O   0  0  0  0  0  0  0  0  0  0  0  0
    3.9607    2.2828    3.1218 C   0  0  0  0  0  0  0  0  0  0  0  0
    5.2666    1.5620    3.4143 C   0  0  0  0  0  0  0  0  0  0  0  0
    6.1441    2.4396    4.2919 C   0  0  0  0  0  0  0  0  0  0  0  0
    4.2532    3.5887    2.4010 C   0  0  0  0  0  0  0  0  0  0  0  0
   -0.3059    0.7075    1.7208 C   0  0  0  0  0  0  0  0  0  0  0  0
   -0.1034   -0.4483    2.6871 C   0  0  0  0  0  0  0  0  0  0  0  0
   -0.3182   -1.7513    2.2501 C   0  0  0  0  0  0  0  0  0  0  0  0
   -0.1334   -2.8121    3.1305 C   0  0  0  0  0  0  0  0  0  0  0  0
    0.2650   -2.5557    4.4386 C   0  0  0  0  0  0  0  0  0  0  0  0
    0.4451   -3.5822    5.2965 O   0  0  0  0  0  0  0  0  0  0  0  0
    0.4809   -1.2545    4.8808 C   0  0  0  0  0  0  0  0  0  0  0  0
    0.2950   -0.1975    3.9961 C   0  0  0  0  0  0  0  0  0  0  0  0
  1  2  2  0
  2  3  1  0
  3  4  1  0
  4  5  1  0
  5  6  1  0
  6  7  1  0
  7  8  1  0
  8  9  1  0
  8 10  1  0
  7 11  1  0
  6 12  1  0
 12 13  1  0
 13  3  1  0
  2 14  1  0
 14 15  1  0
 15 16  1  0
 16 17  2  0
 16 18  1  0
 18 19  1  0
 19 20  1  0
 18 21  1  0
 14 22  1  0
 22 23  1  0
 23 24  2  0
 24 25  1  0
 25 26  2  0
 26 27  1  0
 26 28  1  0
 28 29  2  0
 29 23  1  0
M  CHG  1   7   1
M  END
$$$$
s_22____2164516____17513450
     RDKit          3D

 26 27  0  0  0  0  0  0  0  0999 V2000
    4.8765    5.1047    2.0166 O   0  0  0  0  0  0  0  0  0  0  0  0
    3.8026    4.6094    1.8128 C   0  0  0  0  0  0  0  0  0  0  0  0
    3.4087    3.5093    2.5281 N   0  0  0  0  0  0  0  0  0  0  0  0
    4.3233    2.9558    3.5406 C   0  0  0  0  0  0  0  0  0  0  0  0
    4.1958    1.4438    3.6644 C   0  0  0  0  0  0  0  0  0  0  0  0
    4.9583    1.0024    4.9030 C   0  0  0  0  0  0  0  0  0  0  0  0
    4.8530   -0.4565    5.0492 N   0  0  0  0  0  0  0  0  0  0  0  0
    5.7853   -1.2726    4.4645 C   0  0  0  0  0  0  0  0  0  0  0  0
    6.6878   -0.7965    3.8332 O   0  0  0  0  0  0  0  0  0  0  0  0
    5.6764   -2.7812    4.6157 C   0  0  0  0  0  0  0  0  0  0  0  0
    2.7443    0.9913    3.7385 C   0  0  0  0  0  0  0  0  0  0  0  0
    2.0724    1.4186    2.4401 C   0  0  0  0  0  0  0  0  0  0  0  0
    2.0852    2.9288    2.2459 C   0  0  0  0  0  0  0  0  0  0  0  0
    2.8794    5.2025    0.7610 C   0  0  0  0  0  0  0  0  0  0  0  0
    3.6827    5.8233   -0.3021 N   0  0  0  0  0  0  0  0  0  0  0  0
    4.0696    5.0839   -1.3887 C   0  0  0  0  0  0  0  0  0  0  0  0
    3.7527    3.9295   -1.4725 O   0  0  0  0  0  0  0  0  0  0  0  0
    4.9002    5.7257   -2.4880 C   0  0  0  0  0  0  0  0  0  0  0  0
    1.9894    6.2542    1.4031 C   0  0  0  0  0  0  0  0  0  0  0  0
    1.0661    6.8474    0.3513 C   0  0  0  0  0  0  0  0  0  0  0  0
   -0.1762    6.2644    0.1240 C   0  0  0  0  0  0  0  0  0  0  0  0
   -1.0246    6.8042   -0.8369 C   0  0  0  0  0  0  0  0  0  0  0  0
   -0.6191    7.9222   -1.5590 C   0  0  0  0  0  0  0  0  0  0  0  0
   -1.4819    8.4765   -2.5412 O   0  0  0  0  0  0  0  0  0  0  0  0
    0.6224    8.5088   -1.3358 C   0  0  0  0  0  0  0  0  0  0  0  0
    1.4666    7.9652   -0.3735 C   0  0  0  0  0  0  0  0  0  0  0  0
  1  2  2  0
  2  3  1  0
  3  4  1  0
  4  5  1  0
  5  6  1  0
  6  7  1  0
  7  8  1  0
  8  9  2  0
  8 10  1  0
  5 11  1  0
 11 12  1  0
 12 13  1  0
 13  3  1  0
  2 14  1  0
 14 15  1  0
 15 16  1  0
 16 17  2  0
 16 18  1  0
 14 19  1  0
 19 20  1  0
 20 21  2  0
 21 22  1  0
 22 23  2  0
 23 24  1  0
 23 25  1  0
 25 26  2  0
 26 20  1  0
M  END
$$$$
s_527a____4969738____217438
     RDKit          3D

 28 30  0  0  0  0  0  0  0  0999 V2000
   -2.7942    6.5503    0.7877 Cl  0  0  0  0  0  0  0  0  0  0  0  0
   -1.7679    5.1320    0.4668 C   0  0  0  0  0  0  0  0  0  0  0  0
   -2.2011    3.8654    0.8430 C   0  0  0  0  0  0  0  0  0  0  0  0
   -1.4017    2.7542    0.5947 C   0  0  0  0  0  0  0  0  0  0  0  0
   -0.1722    2.9289   -0.0315 C   0  0  0  0  0  0  0  0  0  0  0  0
    0.2615    4.1952   -0.4077 C   0  0  0  0  0  0  0  0  0  0  0  0
   -0.5380    5.3067   -0.1593 C   0  0  0  0  0  0  0  0  0  0  0  0
    0.7075    1.7208   -0.3059 C   0  0  0  0  0  0  0  0  0  0  0  0
    0.0129    0.8075   -1.2248 N   0  0  0  0  0  0  0  0  0  0  0  0
    0.5721    0.4993   -2.4369 C   0  0  0  0  0  0  0  0  0  0  0  0
    1.6288    0.9750   -2.7485 O   0  0  0  0  0  0  0  0  0  0  0  0
   -0.1461   -0.4450   -3.3871 C   0  0  0  0  0  0  0  0  0  0  0  0
    1.0000    1.0000    1.0000 C   0  0  0  0  0  0  0  0  0  0  0  0
    1.8776    1.8776    1.8776 C   0  0  0  0  0  0  0  0  0  0  0  0
    2.7107    2.5826    1.3787 O   0  0  0  0  0  0  0  0  0  0  0  0
    1.7174    1.8637    3.2381 N   0  0  0  0  0  0  0  0  0  0  0  0
    0.6948    0.9983    3.8505 C   0  0  0  0  0  0  0  0  0  0  0  0
   -0.5723    1.7979    4.1116 C   0  0  0  0  0  0  0  0  0  0  0  0
   -1.6153    0.9041    4.7636 C   0  0  0  0  0  0  0  0  0  0  0  0
   -1.1115    0.3310    6.0208 N   0  0  0  0  0  0  0  0  0  0  0  0
   -2.1339   -0.5096    6.6654 C   0  0  0  0  0  0  0  0  0  0  0  0
   -3.3119    0.3560    7.0834 C   0  0  0  0  0  0  0  0  0  0  0  0
   -3.1657    1.2415    8.1094 C   0  0  0  0  0  0  0  0  0  0  0  0
   -4.6800    2.0030    8.2679 S   0  0  0  0  0  0  0  0  0  0  0  0
   -5.5201    1.1941    7.0230 C   0  0  0  0  0  0  0  0  0  0  0  0
   -4.6056    0.3326    6.4969 C   0  0  0  0  0  0  0  0  0  0  0  0
    0.1290   -0.4308    5.8116 C   0  0  0  0  0  0  0  0  0  0  0  0
    1.1966    0.4442    5.1742 C   0  0  0  0  0  0  0  0  0  0  0  0
  1  2  1  0
  2  3  2  0
  3  4  1  0
  4  5  2  0
  5  6  1  0
  6  7  2  0
  7  2  1  0
  5  8  1  0
  8  9  1  0
  9 10  1  0
 10 11  2  0
 10 12  1  0
  8 13  1  0
 13 14  1  0
 14 15  2  0
 14 16  1  0
 16 17  1  0
 17 18  1  0
 18 19  1  0
 19 20  1  0
 20 21  1  0
 21 22  1  0
 22 23  2  0
 23 24  1  0
 24 25  1  0
 25 26  2  0
 26 22  1  0
 20 27  1  0
 27 28  1  0
 28 17  1  0
M  CHG  1  20   1
M  END
$$$$
s_512____6885310____2245928
     RDKit          3D

 28 29  0  0  0  0  0  0  0  0999 V2000
    1.7202    6.5457    1.1640 F   0  0  0  0  0  0  0  0  0  0  0  0
    2.8164    6.0023    0.6424 C   0  0  0  0  0  0  0  0  0  0  0  0
    3.8340    6.8493    0.7684 F   0  0  0  0  0  0  0  0  0  0  0  0
    2.6125    5.7427   -0.6460 F   0  0  0  0  0  0  0  0  0  0  0  0
    3.1391    4.7099    1.3748 C   0  0  0  0  0  0  0  0  0  0  0  0
    2.6743    3.5001    0.8697 C   0  0  0  0  0  0  0  0  0  0  0  0
    2.9768    2.3242    1.5485 C   0  0  0  0  0  0  0  0  0  0  0  0
    3.7319    2.3452    2.7166 C   0  0  0  0  0  0  0  0  0  0  0  0
    4.1869    3.5657    3.2047 C   0  0  0  0  0  0  0  0  0  0  0  0
    3.8959    4.7533    2.5410 C   0  0  0  0  0  0  0  0  0  0  0  0
    2.4700    1.0000    1.0000 C   0  0  0  0  0  0  0  0  0  0  0  0
    1.0000    1.0000    1.0000 N   0  0  0  0  0  0  0  0  0  0  0  0
    0.3150    1.0000   -0.1865 C   0  0  0  0  0  0  0  0  0  0  0  0
    0.9150    1.0000   -1.2257 O   0  0  0  0  0  0  0  0  0  0  0  0
   -1.0550    1.0000   -0.1865 N   0  0  0  0  0  0  0  0  0  0  0  0
   -1.7913    1.0000   -1.4617 C   0  0  0  0  0  0  0  0  0  0  0  0
   -2.6682   -0.2383   -1.5508 C   0  0  0  0  0  0  0  0  0  0  0  0
   -3.4430   -0.2184   -2.8585 C   0  0  0  0  0  0  0  0  0  0  0  0
   -4.2598    1.0011   -2.9586 N   0  0  0  0  0  0  0  0  0  0  0  0
   -3.4418    2.2190   -2.8603 C   0  0  0  0  0  0  0  0  0  0  0  0
   -2.6698    2.2376   -1.5506 C   0  0  0  0  0  0  0  0  0  0  0  0
   -4.9837    1.0459   -4.2377 C   0  0  0  0  0  0  0  0  0  0  0  0
   -4.3089   -1.4667   -2.9138 C   0  0  0  0  0  0  0  0  0  0  0  0
    0.2650    1.0000    2.2731 C   0  0  0  0  0  0  0  0  0  0  0  0
   -0.1234    2.4246    2.6338 C   0  0  0  0  0  0  0  0  0  0  0  0
   -0.7308    2.4389    3.9173 O   0  0  0  0  0  0  0  0  0  0  0  0
   -2.1327    2.2599    3.7797 C   0  0  0  0  0  0  0  0  0  0  0  0
    2.9767   -0.1369    1.8724 C   0  0  0  0  0  0  0  0  0  0  0  0
  1  2  1  0
  2  3  1  0
  2  4  1  0
  2  5  1  0
  5  6  2  0
  6  7  1  0
  7  8  2  0
  8  9  1  0
  9 10  2  0
 10  5  1  0
  7 11  1  0
 11 12  1  0
 12 13  1  0
 13 14  2  0
 13 15  1  0
 15 16  1  0
 16 17  1  0
 17 18  1  0
 18 19  1  0
 19 20  1  0
 20 21  1  0
 21 16  1  0
 19 22  1  0
 18 23  1  0
 12 24  1  0
 24 25  1  0
 25 26  1  0
 26 27  1  0
 11 28  1  0
M  CHG  1  19   1
M  END
$$$$
s_22____10210200____16887748
     RDKit          3D

 27 28  0  0  0  0  0  0  0  0999 V2000
    1.4864    5.4673   -3.9077 F   0  0  0  0  0  0  0  0  0  0  0  0
    0.3964    5.1680   -3.2032 C   0  0  0  0  0  0  0  0  0  0  0  0
    0.6894    4.4462   -1.8956 C   0  0  0  0  0  0  0  0  0  0  0  0
    1.4102    3.1404   -2.1881 C   0  0  0  0  0  0  0  0  0  0  0  0
    1.6931    2.4433   -0.9252 N   0  0  0  0  0  0  0  0  0  0  0  0
    0.7075    1.7208   -0.3059 C   0  0  0  0  0  0  0  0  0  0  0  0
   -0.3868    1.6571   -0.7943 O   0  0  0  0  0  0  0  0  0  0  0  0
    1.0000    1.0000    1.0000 C   0  0  0  0  0  0  0  0  0  0  0  0
    1.8487    1.8487    1.8487 N   0  0  0  0  0  0  0  0  0  0  0  0
    3.0831    1.4052    2.2442 C   0  0  0  0  0  0  0  0  0  0  0  0
    3.4716    0.3240    1.8978 O   0  0  0  0  0  0  0  0  0  0  0  0
    3.9607    2.2828    3.1218 C   0  0  0  0  0  0  0  0  0  0  0  0
    5.1807    1.6094    3.3950 O   0  0  0  0  0  0  0  0  0  0  0  0
    6.0005    2.4293    4.2149 C   0  0  0  0  0  0  0  0  0  0  0  0
    5.2797    2.7218    5.5207 C   0  0  0  0  0  0  0  0  0  0  0  0
    7.3064    1.7085    4.5074 C   0  0  0  0  0  0  0  0  0  0  0  0
   -0.3059    0.7075    1.7208 C   0  0  0  0  0  0  0  0  0  0  0  0
   -0.0133   -0.0134    3.0267 C   0  0  0  0  0  0  0  0  0  0  0  0
    0.1949    0.7274    4.1855 C   0  0  0  0  0  0  0  0  0  0  0  0
    0.4621    0.0721    5.3829 C   0  0  0  0  0  0  0  0  0  0  0  0
    0.5173   -1.3180    5.4060 C   0  0  0  0  0  0  0  0  0  0  0  0
    0.7767   -1.9580    6.5658 O   0  0  0  0  0  0  0  0  0  0  0  0
    0.3102   -2.0634    4.2499 C   0  0  0  0  0  0  0  0  0  0  0  0
    0.0429   -1.4030    3.0554 C   0  0  0  0  0  0  0  0  0  0  0  0
   -0.5514    6.3186   -2.9478 C   0  0  0  0  0  0  0  0  0  0  0  0
   -1.2397    5.9425   -4.2430 C   0  0  0  0  0  0  0  0  0  0  0  0
   -0.7525    4.5372   -3.9600 C   0  0  0  0  0  0  0  0  0  0  0  0
  1  2  1  0
  2  3  1  0
  3  4  1  0
  4  5  1  0
  5  6  1  0
  6  7  2  0
  6  8  1  0
  8  9  1  0
  9 10  1  0
 10 11  2  0
 10 12  1  0
 12 13  1  0
 13 14  1  0
 14 15  1  0
 14 16  1  0
  8 17  1  0
 17 18  1  0
 18 19  2  0
 19 20  1  0
 20 21  2  0
 21 22  1  0
 21 23  1  0
 23 24  2  0
 24 18  1  0
  2 25  1  0
 25 26  1  0
 26 27  1  0
 27  2  1  0
M  END
$$$$
s_22____14059738____107338
     RDKit          3D

 29 30  0  0  0  0  0  0  0  0999 V2000
    1.2159   -2.2809    5.7367 O   0  0  0  0  0  0  0  0  0  0  0  0
    2.1335   -1.7773    5.1498 C   0  0  0  0  0  0  0  0  0  0  0  0
    3.1316   -2.5179    4.7357 O   0  0  0  0  0  0  0  0  0  0  0  0
    3.1277   -3.9165    4.9813 C   0  0  0  0  0  0  0  0  0  0  0  0
    2.1378   -0.2798    4.8869 C   0  0  0  0  0  0  0  0  0  0  0  0
    2.1847   -0.0550    3.3823 C   0  0  0  0  0  0  0  0  0  0  0  0
    2.4534    1.3517    3.0397 N   0  0  0  0  0  0  0  0  0  0  0  0
    1.8776    1.8776    1.8776 C   0  0  0  0  0  0  0  0  0  0  0  0
    2.0766    3.0213    1.5740 O   0  0  0  0  0  0  0  0  0  0  0  0
    1.0000    1.0000    1.0000 C   0  0  0  0  0  0  0  0  0  0  0  0
    0.7075    1.7208   -0.3059 C   0  0  0  0  0  0  0  0  0  0  0  0
   -0.1412    0.8721   -1.1546 N   0  0  0  0  0  0  0  0  0  0  0  0
   -1.3757    1.3156   -1.5500 C   0  0  0  0  0  0  0  0  0  0  0  0
   -1.7641    2.3968   -1.2036 O   0  0  0  0  0  0  0  0  0  0  0  0
   -2.2532    0.4380   -2.4276 C   0  0  0  0  0  0  0  0  0  0  0  0
    2.0134    2.0133   -1.0267 C   0  0  0  0  0  0  0  0  0  0  0  0
    2.8673    0.9636   -1.3489 C   0  0  0  0  0  0  0  0  0  0  0  0
    4.0629    1.2264   -2.0091 C   0  0  0  0  0  0  0  0  0  0  0  0
    4.3894    2.5379   -2.3396 C   0  0  0  0  0  0  0  0  0  0  0  0
    5.5490    2.7975   -2.9801 O   0  0  0  0  0  0  0  0  0  0  0  0
    6.0178    4.1337   -3.0859 C   0  0  0  0  0  0  0  0  0  0  0  0
    3.5392    3.5914   -2.0194 C   0  0  0  0  0  0  0  0  0  0  0  0
    2.3447    3.3228   -1.3595 C   0  0  0  0  0  0  0  0  0  0  0  0
    3.2992    2.2247    3.8709 C   0  0  0  0  0  0  0  0  0  0  0  0
    3.1964    1.8845    5.3511 C   0  0  0  0  0  0  0  0  0  0  0  0
    4.2634    2.6071    6.0591 N   0  0  0  0  0  0  0  0  0  0  0  0
    5.5708    2.1899    5.5323 C   0  0  0  0  0  0  0  0  0  0  0  0
    4.0928    4.0532    5.8579 C   0  0  0  0  0  0  0  0  0  0  0  0
    3.2998    0.3877    5.6094 C   0  0  0  0  0  0  0  0  0  0  0  0
  1  2  2  0
  2  3  1  0
  3  4  1  0
  2  5  1  0
  5  6  1  0
  6  7  1  0
  7  8  1  0
  8  9  2  0
  8 10  1  0
 10 11  1  0
 11 12  1  0
 12 13  1  0
 13 14  2  0
 13 15  1  0
 11 16  1  0
 16 17  2  0
 17 18  1  0
 18 19  2  0
 19 20  1  0
 20 21  1  0
 19 22  1  0
 22 23  2  0
 23 16  1  0
  7 24  1  0
 24 25  1  0
 25 26  1  0
 26 27  1  0
 26 28  1  0
 25 29  1  0
 29  5  1  0
M  CHG  1  26   1
M  END
$$$$
s_2708____905938____8283954
     RDKit          3D

 23 24  0  0  0  0  0  0  0  0999 V2000
    2.9700    2.0392    1.0000 O   0  0  0  0  0  0  0  0  0  0  0  0
    2.3700    1.0000    1.0000 C   0  0  0  0  0  0  0  0  0  0  0  0
    1.0000    1.0000    1.0000 N   0  0  0  0  0  0  0  0  0  0  0  0
    0.2650   -0.2731    1.0000 C   0  0  0  0  0  0  0  0  0  0  0  0
   -0.0425   -0.6807    2.4320 C   0  0  0  0  0  0  0  0  0  0  0  0
   -1.2274   -0.2618    3.0283 C   0  0  0  0  0  0  0  0  0  0  0  0
   -1.5045   -0.6363    4.3391 C   0  0  0  0  0  0  0  0  0  0  0  0
   -0.6005   -1.4250    5.0430 C   0  0  0  0  0  0  0  0  0  0  0  0
    0.5797   -1.8379    4.4370 C   0  0  0  0  0  0  0  0  0  0  0  0
    0.8686   -1.4696    3.1271 C   0  0  0  0  0  0  0  0  0  0  0  0
    0.2650    2.2731    1.0000 C   0  0  0  0  0  0  0  0  0  0  0  0
   -0.2570    2.5568   -0.3991 C   0  0  0  0  0  0  0  0  0  0  0  0
    0.7275    2.1908   -1.3548 O   0  0  0  0  0  0  0  0  0  0  0  0
   -1.5224    1.7502   -0.6410 C   0  0  0  0  0  0  0  0  0  0  0  0
   -0.5672    4.0387   -0.5333 C   0  0  0  0  0  0  0  0  0  0  0  0
    3.0550   -0.1865    1.0000 N   0  0  0  0  0  0  0  0  0  0  0  0
    4.5279   -0.1865    1.0000 C   0  0  0  0  0  0  0  0  0  0  0  0
    5.0464   -0.9014   -0.2383 C   0  0  0  0  0  0  0  0  0  0  0  0
    6.5667   -0.9167   -0.2204 C   0  0  0  0  0  0  0  0  0  0  0  0
    7.0764   -1.5736    0.9927 N   0  0  0  0  0  0  0  0  0  0  0  0
    6.5757   -0.9235    2.2133 C   0  0  0  0  0  0  0  0  0  0  0  0
    5.0555   -0.9081    2.2297 C   0  0  0  0  0  0  0  0  0  0  0  0
    8.5480   -1.6142    0.9930 C   0  0  0  0  0  0  0  0  0  0  0  0
  1  2  2  0
  2  3  1  0
  3  4  1  0
  4  5  1  0
  5  6  2  0
  6  7  1  0
  7  8  2  0
  8  9  1  0
  9 10  2  0
 10  5  1  0
  3 11  1  0
 11 12  1  0
 12 13  1  0
 12 14  1  0
 12 15  1  0
  2 16  1  0
 16 17  1  0
 17 18  1  0
 18 19  1  0
 19 20  1  0
 20 21  1  0
 21 22  1  0
 22 17  1  0
 20 23  1  0
M  CHG  1  20   1
M  END
$$$$
s_2708____5730620____11566486
     RDKit          3D

 28 29  0  0  0  0  0  0  0  0999 V2000
    3.4536    6.8800    3.5410 F   0  0  0  0  0  0  0  0  0  0  0  0
    3.0678    5.6809    3.9670 C   0  0  0  0  0  0  0  0  0  0  0  0
    3.4718    5.2365    5.2223 C   0  0  0  0  0  0  0  0  0  0  0  0
    4.2509    6.0208    5.9982 O   0  0  0  0  0  0  0  0  0  0  0  0
    4.6629    5.5670    7.2791 C   0  0  0  0  0  0  0  0  0  0  0  0
    3.0801    3.9863    5.6899 C   0  0  0  0  0  0  0  0  0  0  0  0
    2.2778    3.1827    4.8864 C   0  0  0  0  0  0  0  0  0  0  0  0
    1.8774    3.6325    3.6325 C   0  0  0  0  0  0  0  0  0  0  0  0
    2.2656    4.8814    3.1602 C   0  0  0  0  0  0  0  0  0  0  0  0
    1.0000    2.7551    2.7551 C   0  0  0  0  0  0  0  0  0  0  0  0
    1.8776    1.8776    1.8776 C   0  0  0  0  0  0  0  0  0  0  0  0
    2.7551    1.0000    2.7551 C   0  0  0  0  0  0  0  0  0  0  0  0
    3.9501    1.0779    2.6773 O   0  0  0  0  0  0  0  0  0  0  0  0
    2.1819    0.1201    3.6350 N   0  0  0  0  0  0  0  0  0  0  0  0
    3.0306   -0.7286    4.4837 C   0  0  0  0  0  0  0  0  0  0  0  0
    1.0000    1.0000    1.0000 C   0  0  0  0  0  0  0  0  0  0  0  0
    1.8487    0.1513    0.1513 N   0  0  0  0  0  0  0  0  0  0  0  0
    2.4124    0.6661   -0.9863 C   0  0  0  0  0  0  0  0  0  0  0  0
    2.2133    1.8099   -1.2899 O   0  0  0  0  0  0  0  0  0  0  0  0
    3.2034   -0.1248   -1.7773 N   0  0  0  0  0  0  0  0  0  0  0  0
    3.8093    0.4285   -3.0000 C   0  0  0  0  0  0  0  0  0  0  0  0
    5.3239    0.3364   -2.9121 C   0  0  0  0  0  0  0  0  0  0  0  0
    5.9406    0.8868   -4.1879 C   0  0  0  0  0  0  0  0  0  0  0  0
    5.4458    0.1516   -5.3620 N   0  0  0  0  0  0  0  0  0  0  0  0
    3.9803    0.2082   -5.4675 C   0  0  0  0  0  0  0  0  0  0  0  0
    3.3340   -0.3562   -4.2123 C   0  0  0  0  0  0  0  0  0  0  0  0
    6.0091    0.7024   -6.6035 C   0  0  0  0  0  0  0  0  0  0  0  0
    7.4522    0.7780   -4.0672 C   0  0  0  0  0  0  0  0  0  0  0  0
  1  2  1  0
  2  3  2  0
  3  4  1  0
  4  5  1  0
  3  6  1  0
  6  7  2  0
  7  8  1  0
  8  9  2  0
  9  2  1  0
  8 10  1  0
 10 11  1  0
 11 12  1  0
 12 13  2  0
 12 14  1  0
 14 15  1  0
 11 16  1  0
 16 17  1  0
 17 18  1  0
 18 19  2  0
 18 20  1  0
 20 21  1  0
 21 22  1  0
 22 23  1  0
 23 24  1  0
 24 25  1  0
 25 26  1  0
 26 21  1  0
 24 27  1  0
 23 28  1  0
M  CHG  1  24   1
M  END
$$$$
s_2708____13152144____12549494
     RDKit          3D

 27 28  0  0  0  0  0  0  0  0999 V2000
    0.9150    1.0000    3.2257 O   0  0  0  0  0  0  0  0  0  0  0  0
    0.3150    1.0000    2.1865 C   0  0  0  0  0  0  0  0  0  0  0  0
   -1.0550    1.0000    2.1865 N   0  0  0  0  0  0  0  0  0  0  0  0
   -1.7899    1.0000    3.4593 C   0  0  0  0  0  0  0  0  0  0  0  0
   -2.6632   -0.2434    3.5363 C   0  0  0  0  0  0  0  0  0  0  0  0
   -3.5165   -0.2234    4.7980 C   0  0  0  0  0  0  0  0  0  0  0  0
   -4.3659    1.0341    4.8979 C   0  0  0  0  0  0  0  0  0  0  0  0
   -5.1028    1.0204    6.1683 N   0  0  0  0  0  0  0  0  0  0  0  0
   -5.9699   -0.1655    6.2190 C   0  0  0  0  0  0  0  0  0  0  0  0
   -4.1500    0.9789    7.2870 C   0  0  0  0  0  0  0  0  0  0  0  0
   -3.4360    2.2397    4.8665 C   0  0  0  0  0  0  0  0  0  0  0  0
   -2.5777    2.2905    3.6130 C   0  0  0  0  0  0  0  0  0  0  0  0
   -5.4040    1.0976    3.7877 C   0  0  0  0  0  0  0  0  0  0  0  0
    1.0000    1.0000    1.0000 N   0  0  0  0  0  0  0  0  0  0  0  0
    2.4700    1.0000    1.0000 C   0  0  0  0  0  0  0  0  0  0  0  0
    2.9767   -0.4113    1.2488 C   0  0  0  0  0  0  0  0  0  0  0  0
    2.4700   -1.3325    0.1511 C   0  0  0  0  0  0  0  0  0  0  0  0
    1.7801   -2.2742    0.4289 O   0  0  0  0  0  0  0  0  0  0  0  0
    2.7865   -1.0983   -1.0984 O   0  0  0  0  0  0  0  0  0  0  0  0
    2.3131   -1.9589   -2.1240 C   0  0  0  0  0  0  0  0  0  0  0  0
    4.4967   -0.4113    1.2488 C   0  0  0  0  0  0  0  0  0  0  0  0
    5.0034   -1.8229    1.4977 C   0  0  0  0  0  0  0  0  0  0  0  0
    5.2331   -2.6725    0.4206 C   0  0  0  0  0  0  0  0  0  0  0  0
    5.6960   -3.9636    0.6528 C   0  0  0  0  0  0  0  0  0  0  0  0
    5.9270   -4.3960    1.9544 C   0  0  0  0  0  0  0  0  0  0  0  0
    5.6946   -3.5385    3.0227 C   0  0  0  0  0  0  0  0  0  0  0  0
    5.2311   -2.2453    2.8037 C   0  0  0  0  0  0  0  0  0  0  0  0
  1  2  2  0
  2  3  1  0
  3  4  1  0
  4  5  1  0
  5  6  1  0
  6  7  1  0
  7  8  1  0
  8  9  1  0
  8 10  1  0
  7 11  1  0
 11 12  1  0
 12  4  1  0
  7 13  1  0
  2 14  1  0
 14 15  1  0
 15 16  1  0
 16 17  1  0
 17 18  2  0
 17 19  1  0
 19 20  1  0
 16 21  1  0
 21 22  1  0
 22 23  2  0
 23 24  1  0
 24 25  2  0
 25 26  1  0
 26 27  2  0
 27 22  1  0
M  CHG  1   8   1
M  END
$$$$
s_2708____5730620____8964600
     RDKit          3D

 23 24  0  0  0  0  0  0  0  0999 V2000
    0.9150    1.0000    3.2257 O   0  0  0  0  0  0  0  0  0  0  0  0
    0.3150    1.0000    2.1865 C   0  0  0  0  0  0  0  0  0  0  0  0
   -1.0550    1.0000    2.1865 N   0  0  0  0  0  0  0  0  0  0  0  0
   -1.7913    1.0000    3.4617 C   0  0  0  0  0  0  0  0  0  0  0  0
   -2.6682    2.2383    3.5508 C   0  0  0  0  0  0  0  0  0  0  0  0
   -3.4430    2.2184    4.8585 C   0  0  0  0  0  0  0  0  0  0  0  0
   -4.2598    0.9989    4.9586 N   0  0  0  0  0  0  0  0  0  0  0  0
   -3.4418   -0.2190    4.8603 C   0  0  0  0  0  0  0  0  0  0  0  0
   -2.6698   -0.2376    3.5506 C   0  0  0  0  0  0  0  0  0  0  0  0
   -4.9837    0.9541    6.2377 C   0  0  0  0  0  0  0  0  0  0  0  0
   -4.3089    3.4667    4.9138 C   0  0  0  0  0  0  0  0  0  0  0  0
    1.0000    1.0000    1.0000 N   0  0  0  0  0  0  0  0  0  0  0  0
    2.4700    1.0000    1.0000 C   0  0  0  0  0  0  0  0  0  0  0  0
    2.9768   -0.4334    1.0000 C   0  0  0  0  0  0  0  0  0  0  0  0
    3.2047   -1.0782   -0.2117 C   0  0  0  0  0  0  0  0  0  0  0  0
    3.6696   -2.3889   -0.2177 C   0  0  0  0  0  0  0  0  0  0  0  0
    3.9018   -3.0384    0.9904 C   0  0  0  0  0  0  0  0  0  0  0  0
    3.6733   -2.3951    2.2020 C   0  0  0  0  0  0  0  0  0  0  0  0
    3.2070   -1.0846    2.2080 C   0  0  0  0  0  0  0  0  0  0  0  0
    4.4108   -4.4707    0.9901 C   0  0  0  0  0  0  0  0  0  0  0  0
    4.5679   -4.9169   -0.3488 O   0  0  0  0  0  0  0  0  0  0  0  0
    5.7507   -4.5324    1.7052 C   0  0  0  0  0  0  0  0  0  0  0  0
    3.4118   -5.3636    1.7078 C   0  0  0  0  0  0  0  0  0  0  0  0
  1  2  2  0
  2  3  1  0
  3  4  1  0
  4  5  1  0
  5  6  1  0
  6  7  1  0
  7  8  1  0
  8  9  1  0
  9  4  1  0
  7 10  1  0
  6 11  1  0
  2 12  1  0
 12 13  1  0
 13 14  1  0
 14 15  2  0
 15 16  1  0
 16 17  2  0
 17 18  1  0
 18 19  2  0
 19 14  1  0
 17 20  1  0
 20 21  1  0
 20 22  1  0
 20 23  1  0
M  CHG  1   7   1
M  END
$$$$
s_240690b____13141992____14577254
     RDKit          3D

 24 25  0  0  0  0  0  0  0  0999 V2000
    7.2785    0.9382    3.7620 F   0  0  0  0  0  0  0  0  0  0  0  0
    6.6093    0.3642    2.7665 C   0  0  0  0  0  0  0  0  0  0  0  0
    7.3108   -0.2378    1.7262 C   0  0  0  0  0  0  0  0  0  0  0  0
    8.6613   -0.2355    1.7318 O   0  0  0  0  0  0  0  0  0  0  0  0
    6.6328   -0.8454    0.6745 C   0  0  0  0  0  0  0  0  0  0  0  0
    5.2418   -0.8446    0.6739 C   0  0  0  0  0  0  0  0  0  0  0  0
    4.5463   -0.2411    1.7165 C   0  0  0  0  0  0  0  0  0  0  0  0
    5.2188    0.3675    2.7705 C   0  0  0  0  0  0  0  0  0  0  0  0
    3.0267   -0.2411    1.7165 C   0  0  0  0  0  0  0  0  0  0  0  0
    2.5200    1.0000    1.0000 C   0  0  0  0  0  0  0  0  0  0  0  0
    3.0100    1.0000   -0.3859 N   0  0  0  0  0  0  0  0  0  0  0  0
    1.0000    1.0000    1.0000 C   0  0  0  0  0  0  0  0  0  0  0  0
    0.4000    1.0000   -0.0392 O   0  0  0  0  0  0  0  0  0  0  0  0
    0.3150    1.0000    2.1865 N   0  0  0  0  0  0  0  0  0  0  0  0
   -1.1547    1.0000    2.1865 C   0  0  0  0  0  0  0  0  0  0  0  0
   -1.6581    2.2434    2.9043 C   0  0  0  0  0  0  0  0  0  0  0  0
   -3.1774    2.2234    3.0124 C   0  0  0  0  0  0  0  0  0  0  0  0
   -3.6887    0.9659    3.6980 C   0  0  0  0  0  0  0  0  0  0  0  0
   -5.1573    0.9796    3.7010 N   0  0  0  0  0  0  0  0  0  0  0  0
   -5.6572   -0.2340    4.3628 C   0  0  0  0  0  0  0  0  0  0  0  0
   -5.6348    2.1655    4.4266 C   0  0  0  0  0  0  0  0  0  0  0  0
   -3.1965   -0.2397    2.9084 C   0  0  0  0  0  0  0  0  0  0  0  0
   -1.6818   -0.2905    2.7919 C   0  0  0  0  0  0  0  0  0  0  0  0
   -3.2462    0.9024    5.1522 C   0  0  0  0  0  0  0  0  0  0  0  0
  1  2  1  0
  2  3  2  0
  3  4  1  0
  3  5  1  0
  5  6  2  0
  6  7  1  0
  7  8  2  0
  8  2  1  0
  7  9  1  0
  9 10  1  0
 10 11  1  0
 10 12  1  0
 12 13  2  0
 12 14  1  0
 14 15  1  0
 15 16  1  0
 16 17  1  0
 17 18  1  0
 18 19  1  0
 19 20  1  0
 19 21  1  0
 18 22  1  0
 22 23  1  0
 23 15  1  0
 18 24  1  0
M  CHG  2  11   1  19   1
M  END
$$$$
s_22____11971250____107333
     RDKit          3D

 24 25  0  0  0  0  0  0  0  0999 V2000
    0.0027   -2.7339    7.9404 Br  0  0  0  0  0  0  0  0  0  0  0  0
   -0.5455   -1.4586    6.5568 C   0  0  0  0  0  0  0  0  0  0  0  0
   -1.2787   -1.9031    5.4614 C   0  0  0  0  0  0  0  0  0  0  0  0
   -1.6650   -0.9933    4.4827 C   0  0  0  0  0  0  0  0  0  0  0  0
   -1.3149    0.3470    4.6093 C   0  0  0  0  0  0  0  0  0  0  0  0
   -0.5814    0.7848    5.7075 C   0  0  0  0  0  0  0  0  0  0  0  0
   -0.1916   -0.1194    6.6901 C   0  0  0  0  0  0  0  0  0  0  0  0
   -1.7407    1.3359    3.5365 C   0  0  0  0  0  0  0  0  0  0  0  0
   -3.2083    1.3966    3.4807 N   0  0  0  0  0  0  0  0  0  0  0  0
   -3.8542    2.5821    3.7139 C   0  0  0  0  0  0  0  0  0  0  0  0
   -3.2218    3.5709    3.9637 O   0  0  0  0  0  0  0  0  0  0  0  0
   -5.3718    2.6449    3.6563 C   0  0  0  0  0  0  0  0  0  0  0  0
   -1.2007    0.8853    2.1890 C   0  0  0  0  0  0  0  0  0  0  0  0
    0.3150    1.0000    2.1865 C   0  0  0  0  0  0  0  0  0  0  0  0
    0.9116    1.0906    3.2237 O   0  0  0  0  0  0  0  0  0  0  0  0
    1.0000    1.0000    1.0000 N   0  0  0  0  0  0  0  0  0  0  0  0
    2.4700    1.0000    1.0000 C   0  0  0  0  0  0  0  0  0  0  0  0
    2.9767    1.0000   -0.4331 C   0  0  0  0  0  0  0  0  0  0  0  0
    4.4974    1.0000   -0.4331 C   0  0  0  0  0  0  0  0  0  0  0  0
    5.2350    2.1506    0.2312 C   0  0  0  0  0  0  0  0  0  0  0  0
    4.7818    3.7050   -0.5778 S   0  0  0  0  0  0  0  0  0  0  0  0
    5.7896    4.8411    0.4071 C   0  0  0  0  0  0  0  0  0  0  0  0
    5.1541   -0.3466   -0.3219 C   0  0  0  0  0  0  0  0  0  0  0  0
    5.1607    0.3859   -1.6330 C   0  0  0  0  0  0  0  0  0  0  0  0
  1  2  1  0
  2  3  2  0
  3  4  1  0
  4  5  2  0
  5  6  1  0
  6  7  2  0
  7  2  1  0
  5  8  1  0
  8  9  1  0
  9 10  1  0
 10 11  2  0
 10 12  1  0
  8 13  1  0
 13 14  1  0
 14 15  2  0
 14 16  1  0
 16 17  1  0
 17 18  1  0
 18 19  1  0
 19 20  1  0
 20 21  1  0
 21 22  1  0
 19 23  1  0
 23 24  1  0
 24 19  1  0
M  END
$$$$
s_22____8283152____107332
     RDKit          3D

 25 26  0  0  0  0  0  0  0  0999 V2000
    7.9675    1.5121   -3.4183 Cl  0  0  0  0  0  0  0  0  0  0  0  0
    6.9696    1.0358   -2.0235 C   0  0  0  0  0  0  0  0  0  0  0  0
    6.2623   -0.1608   -2.0556 C   0  0  0  0  0  0  0  0  0  0  0  0
    5.4806   -0.5365   -0.9678 C   0  0  0  0  0  0  0  0  0  0  0  0
    5.4188    0.2970    0.1438 C   0  0  0  0  0  0  0  0  0  0  0  0
    6.1258    1.4939    0.1762 C   0  0  0  0  0  0  0  0  0  0  0  0
    6.9076    1.8697   -0.9118 C   0  0  0  0  0  0  0  0  0  0  0  0
    4.5670   -0.1053    1.3359 C   0  0  0  0  0  0  0  0  0  0  0  0
    5.0851   -1.3561    1.9086 N   0  0  0  0  0  0  0  0  0  0  0  0
    5.5150   -1.3876    3.2090 C   0  0  0  0  0  0  0  0  0  0  0  0
    5.4686   -0.3942    3.8805 O   0  0  0  0  0  0  0  0  0  0  0  0
    6.0507   -2.6810    3.8011 C   0  0  0  0  0  0  0  0  0  0  0  0
    3.1300   -0.3113    0.8853 C   0  0  0  0  0  0  0  0  0  0  0  0
    2.3700    1.0000    1.0000 C   0  0  0  0  0  0  0  0  0  0  0  0
    2.9700    2.0353    1.0906 O   0  0  0  0  0  0  0  0  0  0  0  0
    1.0000    1.0000    1.0000 N   0  0  0  0  0  0  0  0  0  0  0  0
    0.2650    2.2731    1.0000 C   0  0  0  0  0  0  0  0  0  0  0  0
   -1.2301    1.9952    1.0000 C   0  0  0  0  0  0  0  0  0  0  0  0
   -2.1960    3.1555    0.8266 C   0  0  0  0  0  0  0  0  0  0  0  0
   -2.0720    3.6824   -0.4862 O   0  0  0  0  0  0  0  0  0  0  0  0
   -1.8720    4.2404    1.8407 C   0  0  0  0  0  0  0  0  0  0  0  0
   -2.2451    5.5977    1.2673 C   0  0  0  0  0  0  0  0  0  0  0  0
   -2.6621    3.9944    3.1157 C   0  0  0  0  0  0  0  0  0  0  0  0
   -1.6562    0.6939    0.3820 C   0  0  0  0  0  0  0  0  0  0  0  0
   -1.6947    0.8647    1.8735 C   0  0  0  0  0  0  0  0  0  0  0  0
  1  2  1  0
  2  3  2  0
  3  4  1  0
  4  5  2  0
  5  6  1  0
  6  7  2  0
  7  2  1  0
  5  8  1  0
  8  9  1  0
  9 10  1  0
 10 11  2  0
 10 12  1  0
  8 13  1  0
 13 14  1  0
 14 15  2  0
 14 16  1  0
 16 17  1  0
 17 18  1  0
 18 19  1  0
 19 20  1  0
 19 21  1  0
 21 22  1  0
 21 23  1  0
 18 24  1  0
 24 25  1  0
 25 18  1  0
M  END
$$$$
s_272212____16644262____13258946
     RDKit          3D

 24 26  0  0  0  0  0  0  0  0999 V2000
    5.3748    2.3675    2.5042 O   0  0  0  0  0  0  0  0  0  0  0  0
    4.1563    2.3054    2.5113 C   0  0  0  0  0  0  0  0  0  0  0  0
    3.2951    3.4001    2.4929 N   0  0  0  0  0  0  0  0  0  0  0  0
    1.9778    2.9536    2.5145 C   0  0  0  0  0  0  0  0  0  0  0  0
    0.9867    3.6634    2.5238 O   0  0  0  0  0  0  0  0  0  0  0  0
    1.9806    1.4372    2.5384 C   0  0  0  0  0  0  0  0  0  0  0  0
    3.4120    1.1287    2.5469 N   0  0  0  0  0  0  0  0  0  0  0  0
    3.9801   -0.2268    2.6012 C   0  0  0  0  0  0  0  0  0  0  0  0
    1.3849    0.9456    1.2299 C   0  0  0  0  0  0  0  0  0  0  0  0
    0.1310    0.3435    1.2434 C   0  0  0  0  0  0  0  0  0  0  0  0
   -0.4127   -0.1050    0.0448 C   0  0  0  0  0  0  0  0  0  0  0  0
   -1.6274   -0.6930    0.0355 O   0  0  0  0  0  0  0  0  0  0  0  0
    0.2862    0.0455   -1.1485 C   0  0  0  0  0  0  0  0  0  0  0  0
    1.5403    0.6484   -1.1491 C   0  0  0  0  0  0  0  0  0  0  0  0
    2.0944    1.1021    0.0434 C   0  0  0  0  0  0  0  0  0  0  0  0
    3.7148    4.8075    2.4635 C   0  0  0  0  0  0  0  0  0  0  0  0
    3.1417    5.4246    1.1917 C   0  0  0  0  0  0  0  0  0  0  0  0
    3.6152    6.7837    0.8589 N   0  0  0  0  0  0  0  0  0  0  0  0
    3.6943    7.7429    1.9782 C   0  0  0  0  0  0  0  0  0  0  0  0
    4.7341    7.3457    3.0243 C   0  0  0  0  0  0  0  0  0  0  0  0
    4.2045    6.5652    4.1540 N   0  0  0  0  0  0  0  0  0  0  0  0
    3.2707    5.4999    3.7440 C   0  0  0  0  0  0  0  0  0  0  0  0
    3.5176    7.4181    5.1344 C   0  0  0  0  0  0  0  0  0  0  0  0
    2.7025    7.3487   -0.1444 C   0  0  0  0  0  0  0  0  0  0  0  0
  1  2  2  0
  2  3  1  0
  3  4  1  0
  4  5  2  0
  4  6  1  0
  6  7  1  0
  7  2  1  0
  7  8  1  0
  6  9  1  0
  9 10  2  0
 10 11  1  0
 11 12  1  0
 11 13  2  0
 13 14  1  0
 14 15  2  0
 15  9  1  0
  3 16  1  0
 16 17  1  0
 17 18  1  0
 18 19  1  0
 19 20  1  0
 20 21  1  0
 21 22  1  0
 22 16  1  0
 21 23  1  0
 18 24  1  0
M  CHG  2  18   1  21   1
M  END
$$$$
s_22____7349344____12624298
     RDKit          3D

 23 24  0  0  0  0  0  0  0  0999 V2000
   -3.2980    2.2225    6.9961 Br  0  0  0  0  0  0  0  0  0  0  0  0
   -2.5957    0.9216    5.7095 C   0  0  0  0  0  0  0  0  0  0  0  0
   -2.1665    1.3534    4.4593 C   0  0  0  0  0  0  0  0  0  0  0  0
   -1.6712    0.4174    3.5567 C   0  0  0  0  0  0  0  0  0  0  0  0
   -1.6020   -0.9312    3.8893 C   0  0  0  0  0  0  0  0  0  0  0  0
   -2.0373   -1.3417    5.1451 C   0  0  0  0  0  0  0  0  0  0  0  0
   -2.5358   -0.4224    6.0622 C   0  0  0  0  0  0  0  0  0  0  0  0
   -1.2007    0.8853    2.1890 C   0  0  0  0  0  0  0  0  0  0  0  0
   -1.6203   -0.0854    1.1679 N   0  0  0  0  0  0  0  0  0  0  0  0
   -2.4417    0.3086    0.1447 C   0  0  0  0  0  0  0  0  0  0  0  0
   -2.8186    1.4461    0.0820 O   0  0  0  0  0  0  0  0  0  0  0  0
   -2.8756   -0.6952   -0.9111 C   0  0  0  0  0  0  0  0  0  0  0  0
    0.3150    1.0000    2.1865 C   0  0  0  0  0  0  0  0  0  0  0  0
    0.9116    1.0906    3.2237 O   0  0  0  0  0  0  0  0  0  0  0  0
    1.0000    1.0000    1.0000 N   0  0  0  0  0  0  0  0  0  0  0  0
    2.4700    1.0000    1.0000 C   0  0  0  0  0  0  0  0  0  0  0  0
    2.9765   -0.4273    1.1249 C   0  0  0  0  0  0  0  0  0  0  0  0
    2.4595   -1.4812    0.1583 C   0  0  0  0  0  0  0  0  0  0  0  0
    2.9161   -1.1432   -1.2516 C   0  0  0  0  0  0  0  0  0  0  0  0
    2.4333   -2.1274   -2.1542 O   0  0  0  0  0  0  0  0  0  0  0  0
    2.8598   -1.8116   -3.4713 C   0  0  0  0  0  0  0  0  0  0  0  0
    3.2573   -0.8998    2.5231 C   0  0  0  0  0  0  0  0  0  0  0  0
    4.3948   -0.5939    1.5914 C   0  0  0  0  0  0  0  0  0  0  0  0
  1  2  1  0
  2  3  2  0
  3  4  1  0
  4  5  2  0
  5  6  1  0
  6  7  2  0
  7  2  1  0
  4  8  1  0
  8  9  1  0
  9 10  1  0
 10 11  2  0
 10 12  1  0
  8 13  1  0
 13 14  2  0
 13 15  1  0
 15 16  1  0
 16 17  1  0
 17 18  1  0
 18 19  1  0
 19 20  1  0
 20 21  1  0
 17 22  1  0
 22 23  1  0
 23 17  1  0
M  END
$$$$
s_272164____9388606____9374976
     RDKit          3D

 25 27  0  0  0  0  0  0  0  0999 V2000
    0.9150    0.9686    3.2255 O   0  0  0  0  0  0  0  0  0  0  0  0
    0.3150    0.9833    2.1863 C   0  0  0  0  0  0  0  0  0  0  0  0
   -1.0863    0.9833    2.1863 N   0  0  0  0  0  0  0  0  0  0  0  0
   -1.8118    0.9664    3.3836 C   0  0  0  0  0  0  0  0  0  0  0  0
   -2.3376    2.1867    3.7873 C   0  0  0  0  0  0  0  0  0  0  0  0
   -2.1315    3.3238    2.9999 N   0  0  0  0  0  0  0  0  0  0  0  0
   -2.4194    3.2527    1.6318 C   0  0  0  0  0  0  0  0  0  0  0  0
   -2.2042    4.2087    0.9042 O   0  0  0  0  0  0  0  0  0  0  0  0
   -2.9792    1.9471    1.0959 C   0  0  0  0  0  0  0  0  0  0  0  0
   -1.7891    1.0219    0.8987 C   0  0  0  0  0  0  0  0  0  0  0  0
   -3.7398    2.1696   -0.1999 C   0  0  0  0  0  0  0  0  0  0  0  0
   -3.0657    2.2412    4.9726 C   0  0  0  0  0  0  0  0  0  0  0  0
   -3.2703    1.1035    5.7469 C   0  0  0  0  0  0  0  0  0  0  0  0
   -2.7468   -0.1187    5.3395 C   0  0  0  0  0  0  0  0  0  0  0  0
   -2.0206   -0.1727    4.1553 C   0  0  0  0  0  0  0  0  0  0  0  0
    1.0000    1.0000    1.0000 N   0  0  0  0  0  0  0  0  0  0  0  0
    2.4725    1.0000    1.0000 C   0  0  0  0  0  0  0  0  0  0  0  0
    2.9882   -0.2281    0.2677 C   0  0  0  0  0  0  0  0  0  0  0  0
    4.5081   -0.2079    0.2509 C   0  0  0  0  0  0  0  0  0  0  0  0
    5.0032    1.0207   -0.3892 N   0  0  0  0  0  0  0  0  0  0  0  0
    4.5090    2.2292    0.2871 C   0  0  0  0  0  0  0  0  0  0  0  0
    2.9888    2.2476    0.3011 C   0  0  0  0  0  0  0  0  0  0  0  0
    6.4728    1.0653   -0.3760 C   0  0  0  0  0  0  0  0  0  0  0  0
    6.9468    2.3457   -1.0440 C   0  0  0  0  0  0  0  0  0  0  0  0
    4.9890   -1.4460   -0.4889 C   0  0  0  0  0  0  0  0  0  0  0  0
  1  2  2  0
  2  3  1  0
  3  4  1  0
  4  5  2  0
  5  6  1  0
  6  7  1  0
  7  8  2  0
  7  9  1  0
  9 10  1  0
 10  3  1  0
  9 11  1  0
  5 12  1  0
 12 13  2  0
 13 14  1  0
 14 15  2  0
 15  4  1  0
  2 16  1  0
 16 17  1  0
 17 18  1  0
 18 19  1  0
 19 20  1  0
 20 21  1  0
 21 22  1  0
 22 17  1  0
 20 23  1  0
 23 24  1  0
 19 25  1  0
M  CHG  1  20   1
M  END
$$$$
s_22____10544104____107338
     RDKit          3D

 25 26  0  0  0  0  0  0  0  0999 V2000
    0.4000   -0.0392    1.0000 O   0  0  0  0  0  0  0  0  0  0  0  0
    1.0000    1.0000    1.0000 C   0  0  0  0  0  0  0  0  0  0  0  0
    2.3700    1.0000    1.0000 N   0  0  0  0  0  0  0  0  0  0  0  0
    3.1050   -0.2682    0.8890 C   0  0  0  0  0  0  0  0  0  0  0  0
    3.4665   -0.5187   -0.5659 C   0  0  0  0  0  0  0  0  0  0  0  0
    4.1155   -1.8847   -0.6982 C   0  0  0  0  0  0  0  0  0  0  0  0
    4.7420   -2.1010   -1.9540 O   0  0  0  0  0  0  0  0  0  0  0  0
    5.5779   -0.9954   -2.2626 C   0  0  0  0  0  0  0  0  0  0  0  0
    3.1922   -2.9875   -0.2414 C   0  0  0  0  0  0  0  0  0  0  0  0
    4.4010   -3.6353    0.3963 C   0  0  0  0  0  0  0  0  0  0  0  0
    4.9455   -2.2288    0.5191 C   0  0  0  0  0  0  0  0  0  0  0  0
    0.2400    2.3164    1.0000 C   0  0  0  0  0  0  0  0  0  0  0  0
   -0.0133    2.7551   -0.4331 C   0  0  0  0  0  0  0  0  0  0  0  0
    1.1052    3.5896   -0.8950 N   0  0  0  0  0  0  0  0  0  0  0  0
    2.1858    3.0097   -1.5058 C   0  0  0  0  0  0  0  0  0  0  0  0
    2.0872    1.9144   -1.9862 O   0  0  0  0  0  0  0  0  0  0  0  0
    3.5095    3.7535   -1.5749 C   0  0  0  0  0  0  0  0  0  0  0  0
   -1.3034    3.5565   -0.4971 C   0  0  0  0  0  0  0  0  0  0  0  0
   -1.2614    4.9360   -0.3241 C   0  0  0  0  0  0  0  0  0  0  0  0
   -2.4392    5.6735   -0.3826 C   0  0  0  0  0  0  0  0  0  0  0  0
   -3.6458    5.0207   -0.6142 C   0  0  0  0  0  0  0  0  0  0  0  0
   -4.8509    5.7695   -0.6744 O   0  0  0  0  0  0  0  0  0  0  0  0
   -6.0858    5.1095   -0.9105 C   0  0  0  0  0  0  0  0  0  0  0  0
   -3.6934    3.6412   -0.7876 C   0  0  0  0  0  0  0  0  0  0  0  0
   -2.5126    2.9088   -0.7285 C   0  0  0  0  0  0  0  0  0  0  0  0
  1  2  2  0
  2  3  1  0
  3  4  1  0
  4  5  1  0
  5  6  1  0
  6  7  1  0
  7  8  1  0
  6  9  1  0
  9 10  1  0
 10 11  1  0
 11  6  1  0
  2 12  1  0
 12 13  1  0
 13 14  1  0
 14 15  1  0
 15 16  2  0
 15 17  1  0
 13 18  1  0
 18 19  2  0
 19 20  1  0
 20 21  2  0
 21 22  1  0
 22 23  1  0
 21 24  1  0
 24 25  2  0
 25 18  1  0
M  END
$$$$
s_2708____5730620____11765628
     RDKit          3D

 25 27  0  0  0  0  0  0  0  0999 V2000
    0.4000   -0.0392    1.0000 O   0  0  0  0  0  0  0  0  0  0  0  0
    1.0000    1.0000    1.0000 C   0  0  0  0  0  0  0  0  0  0  0  0
    2.3700    1.0000    1.0000 N   0  0  0  0  0  0  0  0  0  0  0  0
    3.1050   -0.2731    1.0000 C   0  0  0  0  0  0  0  0  0  0  0  0
    3.9796   -0.3536    2.2421 C   0  0  0  0  0  0  0  0  0  0  0  0
    4.1820   -1.4258    2.9866 O   0  0  0  0  0  0  0  0  0  0  0  0
    4.9940   -1.1182    3.9731 C   0  0  0  0  0  0  0  0  0  0  0  0
    5.3180    0.2007    3.8363 C   0  0  0  0  0  0  0  0  0  0  0  0
    4.6597    0.6627    2.7316 N   0  0  0  0  0  0  0  0  0  0  0  0
    3.9789   -0.3536   -0.2411 C   0  0  0  0  0  0  0  0  0  0  0  0
    4.7390   -1.6702   -0.2411 C   0  0  0  0  0  0  0  0  0  0  0  0
    4.1773   -2.7902   -0.8453 C   0  0  0  0  0  0  0  0  0  0  0  0
    4.8758   -3.9931   -0.8423 C   0  0  0  0  0  0  0  0  0  0  0  0
    6.1270   -4.0694   -0.2393 C   0  0  0  0  0  0  0  0  0  0  0  0
    6.6785   -2.9441    0.3607 C   0  0  0  0  0  0  0  0  0  0  0  0
    5.9897   -1.7356    0.3650 C   0  0  0  0  0  0  0  0  0  0  0  0
    0.3150    2.1865    1.0000 N   0  0  0  0  0  0  0  0  0  0  0  0
   -1.1575    2.1865    1.0000 C   0  0  0  0  0  0  0  0  0  0  0  0
   -1.6732    2.9014    2.2383 C   0  0  0  0  0  0  0  0  0  0  0  0
   -3.1931    2.9185    2.2184 C   0  0  0  0  0  0  0  0  0  0  0  0
   -3.6882    3.5758    0.9989 N   0  0  0  0  0  0  0  0  0  0  0  0
   -3.1940    2.9166   -0.2190 C   0  0  0  0  0  0  0  0  0  0  0  0
   -1.6738    2.9029   -0.2376 C   0  0  0  0  0  0  0  0  0  0  0  0
   -5.1578    3.5632    0.9541 C   0  0  0  0  0  0  0  0  0  0  0  0
   -3.6740    3.6408    3.4667 C   0  0  0  0  0  0  0  0  0  0  0  0
  1  2  2  0
  2  3  1  0
  3  4  1  0
  4  5  1  0
  5  6  1  0
  6  7  1  0
  7  8  2  0
  8  9  1  0
  5  9  2  0
  4 10  1  0
 10 11  1  0
 11 12  2  0
 12 13  1  0
 13 14  2  0
 14 15  1  0
 15 16  2  0
 16 11  1  0
  2 17  1  0
 17 18  1  0
 18 19  1  0
 19 20  1  0
 20 21  1  0
 21 22  1  0
 22 23  1  0
 23 18  1  0
 21 24  1  0
 20 25  1  0
M  CHG  1  21   1
M  END
$$$$
s_270006a____11615738____8408044
     RDKit          3D

 21 22  0  0  0  0  0  0  0  0999 V2000
    0.3166    4.5557   -0.1470 S   0  0  0  0  0  0  0  0  0  0  0  0
   -0.1737    2.9309   -0.0310 C   0  0  0  0  0  0  0  0  0  0  0  0
   -1.4812    2.9268    0.3433 C   0  0  0  0  0  0  0  0  0  0  0  0
   -2.0126    4.2333    0.5279 C   0  0  0  0  0  0  0  0  0  0  0  0
   -1.1604    5.2729    0.3038 C   0  0  0  0  0  0  0  0  0  0  0  0
    0.7075    1.7208   -0.3059 C   0  0  0  0  0  0  0  0  0  0  0  0
    0.0129    0.8075   -1.2248 N   0  0  0  0  0  0  0  0  0  0  0  0
    0.5721    0.4993   -2.4369 C   0  0  0  0  0  0  0  0  0  0  0  0
    1.6288    0.9750   -2.7485 O   0  0  0  0  0  0  0  0  0  0  0  0
   -0.1461   -0.4450   -3.3871 C   0  0  0  0  0  0  0  0  0  0  0  0
    1.0000    1.0000    1.0000 C   0  0  0  0  0  0  0  0  0  0  0  0
    1.8776    1.8776    1.8776 C   0  0  0  0  0  0  0  0  0  0  0  0
    1.9688    3.0524    1.6507 O   0  0  0  0  0  0  0  0  0  0  0  0
    2.5644    1.3273    2.9275 N   0  0  0  0  0  0  0  0  0  0  0  0
    3.4129    2.1758    3.7761 C   0  0  0  0  0  0  0  0  0  0  0  0
    4.8531    1.7023    3.7369 C   0  0  0  0  0  0  0  0  0  0  0  0
    5.4493    2.3109    4.9843 C   0  0  0  0  0  0  0  0  0  0  0  0
    6.7324    1.6022    5.3831 C   0  0  0  0  0  0  0  0  0  0  0  0
    6.4480    0.1838    5.6438 N   0  0  0  0  0  0  0  0  0  0  0  0
    4.3619    2.0655    6.0160 C   0  0  0  0  0  0  0  0  0  0  0  0
    3.0544    2.0023    5.2440 C   0  0  0  0  0  0  0  0  0  0  0  0
  1  2  1  0
  2  3  2  0
  3  4  1  0
  4  5  2  0
  5  1  1  0
  2  6  1  0
  6  7  1  0
  7  8  1  0
  8  9  2  0
  8 10  1  0
  6 11  1  0
 11 12  1  0
 12 13  2  0
 12 14  1  0
 14 15  1  0
 15 16  1  0
 16 17  1  0
 17 18  1  0
 18 19  1  0
 17 20  1  0
 20 21  1  0
 21 15  1  0
M  CHG  1  19   1
M  END
$$$$
s_22____10744164____17513450
     RDKit          3D

 26 26  0  0  0  0  0  0  0  0999 V2000
    2.9700    2.0392    1.0000 O   0  0  0  0  0  0  0  0  0  0  0  0
    2.3700    1.0000    1.0000 C   0  0  0  0  0  0  0  0  0  0  0  0
    1.0000    1.0000    1.0000 N   0  0  0  0  0  0  0  0  0  0  0  0
    0.2650    2.2731    1.0000 C   0  0  0  0  0  0  0  0  0  0  0  0
   -0.3095    2.5264   -0.3842 C   0  0  0  0  0  0  0  0  0  0  0  0
    0.6436    3.4077   -1.1749 C   0  0  0  0  0  0  0  0  0  0  0  0
   -0.1468    4.2499   -2.1630 C   0  0  0  0  0  0  0  0  0  0  0  0
    1.3987    4.3199   -0.2220 C   0  0  0  0  0  0  0  0  0  0  0  0
   -0.4925    1.2018   -1.1071 C   0  0  0  0  0  0  0  0  0  0  0  0
    0.5879    1.0002   -2.0063 O   0  0  0  0  0  0  0  0  0  0  0  0
   -0.8659    2.2052    2.0133 C   0  0  0  0  0  0  0  0  0  0  0  0
   -0.2914    1.9518    3.3976 C   0  0  0  0  0  0  0  0  0  0  0  0
   -1.6259    3.5215    2.0133 C   0  0  0  0  0  0  0  0  0  0  0  0
    3.1300   -0.3164    1.0000 C   0  0  0  0  0  0  0  0  0  0  0  0
    4.5752   -0.0477    1.0000 N   0  0  0  0  0  0  0  0  0  0  0  0
    5.3571   -0.5058    2.0275 C   0  0  0  0  0  0  0  0  0  0  0  0
    4.8622   -1.1263    2.9275 O   0  0  0  0  0  0  0  0  0  0  0  0
    6.8515   -0.2281    2.0275 C   0  0  0  0  0  0  0  0  0  0  0  0
    2.7628   -1.1134   -0.2411 C   0  0  0  0  0  0  0  0  0  0  0  0
    3.5228   -2.4298   -0.2411 C   0  0  0  0  0  0  0  0  0  0  0  0
    2.9568   -3.5469    0.3644 C   0  0  0  0  0  0  0  0  0  0  0  0
    3.6482   -4.7537    0.3662 C   0  0  0  0  0  0  0  0  0  0  0  0
    4.8987   -4.8280   -0.2391 C   0  0  0  0  0  0  0  0  0  0  0  0
    5.5734   -5.9972   -0.2393 O   0  0  0  0  0  0  0  0  0  0  0  0
    5.4695   -3.7138   -0.8457 C   0  0  0  0  0  0  0  0  0  0  0  0
    4.7735   -2.5097   -0.8449 C   0  0  0  0  0  0  0  0  0  0  0  0
  1  2  2  0
  2  3  1  0
  3  4  1  0
  4  5  1  0
  5  6  1  0
  6  7  1  0
  6  8  1  0
  5  9  1  0
  9 10  1  0
  4 11  1  0
 11 12  1  0
 11 13  1  0
  2 14  1  0
 14 15  1  0
 15 16  1  0
 16 17  2  0
 16 18  1  0
 14 19  1  0
 19 20  1  0
 20 21  2  0
 21 22  1  0
 22 23  2  0
 23 24  1  0
 23 25  1  0
 25 26  2  0
 26 20  1  0
M  END
$$$$
s_22____9228604____17513450
     RDKit          3D

 23 23  0  0  0  0  0  0  0  0999 V2000
    0.4000   -0.0392    1.0000 O   0  0  0  0  0  0  0  0  0  0  0  0
    1.0000    1.0000    1.0000 C   0  0  0  0  0  0  0  0  0  0  0  0
    2.3700    1.0000    1.0000 N   0  0  0  0  0  0  0  0  0  0  0  0
    3.1050   -0.2731    1.0000 C   0  0  0  0  0  0  0  0  0  0  0  0
    3.9789   -0.3536   -0.2411 C   0  0  0  0  0  0  0  0  0  0  0  0
    4.7389   -1.6699   -0.2411 C   0  0  0  0  0  0  0  0  0  0  0  0
    5.3339   -2.7005   -0.2411 C   0  0  0  0  0  0  0  0  0  0  0  0
    3.9789   -0.3536    2.2411 C   0  0  0  0  0  0  0  0  0  0  0  0
    3.1050   -0.2731    3.4821 C   0  0  0  0  0  0  0  0  0  0  0  0
    2.4209   -0.2100    4.4538 C   0  0  0  0  0  0  0  0  0  0  0  0
    0.2400    2.3164    1.0000 C   0  0  0  0  0  0  0  0  0  0  0  0
   -1.2052    2.0477    1.0000 N   0  0  0  0  0  0  0  0  0  0  0  0
   -1.9871    2.5058    2.0275 C   0  0  0  0  0  0  0  0  0  0  0  0
   -1.4922    3.1263    2.9275 O   0  0  0  0  0  0  0  0  0  0  0  0
   -3.4815    2.2281    2.0275 C   0  0  0  0  0  0  0  0  0  0  0  0
    0.6072    3.1134   -0.2411 C   0  0  0  0  0  0  0  0  0  0  0  0
   -0.1528    4.4298   -0.2411 C   0  0  0  0  0  0  0  0  0  0  0  0
    0.4132    5.5469    0.3644 C   0  0  0  0  0  0  0  0  0  0  0  0
   -0.2782    6.7537    0.3662 C   0  0  0  0  0  0  0  0  0  0  0  0
   -1.5287    6.8280   -0.2391 C   0  0  0  0  0  0  0  0  0  0  0  0
   -2.2034    7.9972   -0.2393 O   0  0  0  0  0  0  0  0  0  0  0  0
   -2.0995    5.7138   -0.8457 C   0  0  0  0  0  0  0  0  0  0  0  0
   -1.4035    4.5097   -0.8449 C   0  0  0  0  0  0  0  0  0  0  0  0
  1  2  2  0
  2  3  1  0
  3  4  1  0
  4  5  1  0
  5  6  1  0
  6  7  3  0
  4  8  1  0
  8  9  1  0
  9 10  3  0
  2 11  1  0
 11 12  1  0
 12 13  1  0
 13 14  2  0
 13 15  1  0
 11 16  1  0
 16 17  1  0
 17 18  2  0
 18 19  1  0
 19 20  2  0
 20 21  1  0
 20 22  1  0
 22 23  2  0
 23 17  1  0
M  END
$$$$
s_512____11569264____13970736
     RDKit          3D

 25 26  0  0  0  0  0  0  0  0999 V2000
    6.1492   -5.8235    0.5425 F   0  0  0  0  0  0  0  0  0  0  0  0
    5.7442   -4.5573    0.5908 C   0  0  0  0  0  0  0  0  0  0  0  0
    4.8372   -4.0845   -0.3521 C   0  0  0  0  0  0  0  0  0  0  0  0
    4.4190   -2.7589   -0.2958 C   0  0  0  0  0  0  0  0  0  0  0  0
    4.9115   -1.9233    0.7010 C   0  0  0  0  0  0  0  0  0  0  0  0
    5.8176   -2.4016    1.6414 C   0  0  0  0  0  0  0  0  0  0  0  0
    6.2391   -3.7261    1.5903 C   0  0  0  0  0  0  0  0  0  0  0  0
    4.4506   -0.4762    0.7568 C   0  0  0  0  0  0  0  0  0  0  0  0
    2.9767   -0.4276    1.1249 C   0  0  0  0  0  0  0  0  0  0  0  0
    2.7959   -0.9060    2.5563 C   0  0  0  0  0  0  0  0  0  0  0  0
    3.3385   -0.3261    3.4558 O   0  0  0  0  0  0  0  0  0  0  0  0
    2.0133   -1.9993    2.8194 N   0  0  0  0  0  0  0  0  0  0  0  0
    2.0112   -2.5953    4.1632 C   0  0  0  0  0  0  0  0  0  0  0  0
    1.1759   -2.5764    1.7581 C   0  0  0  0  0  0  0  0  0  0  0  0
    2.4700    1.0000    1.0000 C   0  0  0  0  0  0  0  0  0  0  0  0
    1.0000    1.0000    1.0000 N   0  0  0  0  0  0  0  0  0  0  0  0
    0.3150    1.0000    2.1865 C   0  0  0  0  0  0  0  0  0  0  0  0
    0.8607    1.3554    3.1943 O   0  0  0  0  0  0  0  0  0  0  0  0
   -0.9930    0.5942    2.2222 N   0  0  0  0  0  0  0  0  0  0  0  0
   -1.7280    0.5942    3.4953 C   0  0  0  0  0  0  0  0  0  0  0  0
   -2.4048    1.9387    3.6887 C   0  0  0  0  0  0  0  0  0  0  0  0
   -3.3826    2.2394    2.5757 C   0  0  0  0  0  0  0  0  0  0  0  0
   -4.2580    2.8441    3.6482 C   0  0  0  0  0  0  0  0  0  0  0  0
   -5.5457    2.5790    3.4467 F   0  0  0  0  0  0  0  0  0  0  0  0
   -3.6129    1.8502    4.5915 C   0  0  0  0  0  0  0  0  0  0  0  0
  1  2  1  0
  2  3  2  0
  3  4  1  0
  4  5  2  0
  5  6  1  0
  6  7  2  0
  7  2  1  0
  5  8  1  0
  8  9  1  0
  9 10  1  0
 10 11  2  0
 10 12  1  0
 12 13  1  0
 12 14  1  0
  9 15  1  0
 15 16  1  0
 16 17  1  0
 17 18  2  0
 17 19  1  0
 19 20  1  0
 20 21  1  0
 21 22  1  0
 22 23  1  0
 23 24  1  0
 23 25  1  0
 25 21  1  0
M  END
$$$$
s_2708____5730620____4509046
     RDKit          3D

 28 30  0  0  0  0  0  0  0  0999 V2000
    0.4000   -0.0392    1.0000 O   0  0  0  0  0  0  0  0  0  0  0  0
    1.0000    1.0000    1.0000 C   0  0  0  0  0  0  0  0  0  0  0  0
    2.3700    1.0000    1.0000 N   0  0  0  0  0  0  0  0  0  0  0  0
    3.1050   -0.2731    1.0000 C   0  0  0  0  0  0  0  0  0  0  0  0
    4.4331   -0.0913    1.7165 C   0  0  0  0  0  0  0  0  0  0  0  0
    5.4074    0.2402    1.0994 O   0  0  0  0  0  0  0  0  0  0  0  0
    4.5197   -0.3104    3.0947 N   0  0  0  0  0  0  0  0  0  0  0  0
    5.8202   -0.1260    3.7593 C   0  0  0  0  0  0  0  0  0  0  0  0
    5.9920   -1.0664    4.9440 C   0  0  0  0  0  0  0  0  0  0  0  0
    4.7618   -1.0926    5.8387 C   0  0  0  0  0  0  0  0  0  0  0  0
    3.6163   -1.6287    4.9921 C   0  0  0  0  0  0  0  0  0  0  0  0
    3.3014   -0.7191    3.8128 C   0  0  0  0  0  0  0  0  0  0  0  0
    3.3583   -0.7118   -0.4331 C   0  0  0  0  0  0  0  0  0  0  0  0
    3.9507   -2.1120   -0.4372 C   0  0  0  0  0  0  0  0  0  0  0  0
    3.1330   -3.2069   -0.1773 C   0  0  0  0  0  0  0  0  0  0  0  0
    3.6792   -4.4862   -0.1812 C   0  0  0  0  0  0  0  0  0  0  0  0
    5.0333   -4.6636   -0.4449 C   0  0  0  0  0  0  0  0  0  0  0  0
    5.8405   -3.5626   -0.7036 C   0  0  0  0  0  0  0  0  0  0  0  0
    5.3064   -2.2781   -0.7019 C   0  0  0  0  0  0  0  0  0  0  0  0
    0.3150    2.1865    1.0000 N   0  0  0  0  0  0  0  0  0  0  0  0
   -1.1575    2.1865    1.0000 C   0  0  0  0  0  0  0  0  0  0  0  0
   -1.6732    2.1865    2.4299 C   0  0  0  0  0  0  0  0  0  0  0  0
   -3.1931    2.2112    2.4211 C   0  0  0  0  0  0  0  0  0  0  0  0
   -3.6882    3.3902    1.6937 N   0  0  0  0  0  0  0  0  0  0  0  0
   -3.1940    3.4283    0.3094 C   0  0  0  0  0  0  0  0  0  0  0  0
   -1.6738    3.4257    0.2864 C   0  0  0  0  0  0  0  0  0  0  0  0
   -5.1574    3.4017    1.6486 C   0  0  0  0  0  0  0  0  0  0  0  0
   -3.6739    2.2125    3.8631 C   0  0  0  0  0  0  0  0  0  0  0  0
  1  2  2  0
  2  3  1  0
  3  4  1  0
  4  5  1  0
  5  6  2  0
  5  7  1  0
  7  8  1  0
  8  9  1  0
  9 10  1  0
 10 11  1  0
 11 12  1  0
 12  7  1  0
  4 13  1  0
 13 14  1  0
 14 15  2  0
 15 16  1  0
 16 17  2  0
 17 18  1  0
 18 19  2  0
 19 14  1  0
  2 20  1  0
 20 21  1  0
 21 22  1  0
 22 23  1  0
 23 24  1  0
 24 25  1  0
 25 26  1  0
 26 21  1  0
 24 27  1  0
 23 28  1  0
M  CHG  1  24   1
M  END
$$$$
s_2708____5730620____8804876
     RDKit          3D

 28 30  0  0  0  0  0  0  0  0999 V2000
    0.4000   -0.0392    1.0000 O   0  0  0  0  0  0  0  0  0  0  0  0
    1.0000    1.0000    1.0000 C   0  0  0  0  0  0  0  0  0  0  0  0
    2.3700    1.0000    1.0000 N   0  0  0  0  0  0  0  0  0  0  0  0
    3.1050   -0.2731    1.0000 C   0  0  0  0  0  0  0  0  0  0  0  0
    4.4331   -0.0913    1.7165 C   0  0  0  0  0  0  0  0  0  0  0  0
    5.4074    0.2402    1.0994 O   0  0  0  0  0  0  0  0  0  0  0  0
    4.5198   -0.3107    3.0964 N   0  0  0  0  0  0  0  0  0  0  0  0
    5.8139   -0.1298    3.7727 C   0  0  0  0  0  0  0  0  0  0  0  0
    5.6202    0.3786    5.1929 C   0  0  0  0  0  0  0  0  0  0  0  0
    4.6038   -0.3480    5.8716 O   0  0  0  0  0  0  0  0  0  0  0  0
    3.3397   -0.1394    5.2557 C   0  0  0  0  0  0  0  0  0  0  0  0
    3.3096   -0.6935    3.8395 C   0  0  0  0  0  0  0  0  0  0  0  0
    3.3583   -0.7118   -0.4331 C   0  0  0  0  0  0  0  0  0  0  0  0
    3.9507   -2.1120   -0.4372 C   0  0  0  0  0  0  0  0  0  0  0  0
    3.1330   -3.2069   -0.1773 C   0  0  0  0  0  0  0  0  0  0  0  0
    3.6792   -4.4862   -0.1812 C   0  0  0  0  0  0  0  0  0  0  0  0
    5.0333   -4.6636   -0.4449 C   0  0  0  0  0  0  0  0  0  0  0  0
    5.8405   -3.5626   -0.7036 C   0  0  0  0  0  0  0  0  0  0  0  0
    5.3064   -2.2781   -0.7019 C   0  0  0  0  0  0  0  0  0  0  0  0
    0.3150    2.1865    1.0000 N   0  0  0  0  0  0  0  0  0  0  0  0
   -1.1575    2.1865    1.0000 C   0  0  0  0  0  0  0  0  0  0  0  0
   -1.6732    2.1865    2.4299 C   0  0  0  0  0  0  0  0  0  0  0  0
   -3.1931    2.2112    2.4211 C   0  0  0  0  0  0  0  0  0  0  0  0
   -3.6882    3.3902    1.6937 N   0  0  0  0  0  0  0  0  0  0  0  0
   -3.1940    3.4283    0.3094 C   0  0  0  0  0  0  0  0  0  0  0  0
   -1.6738    3.4257    0.2864 C   0  0  0  0  0  0  0  0  0  0  0  0
   -5.1574    3.4017    1.6486 C   0  0  0  0  0  0  0  0  0  0  0  0
   -3.6739    2.2125    3.8631 C   0  0  0  0  0  0  0  0  0  0  0  0
  1  2  2  0
  2  3  1  0
  3  4  1  0
  4  5  1  0
  5  6  2  0
  5  7  1  0
  7  8  1  0
  8  9  1  0
  9 10  1  0
 10 11  1  0
 11 12  1  0
 12  7  1  0
  4 13  1  0
 13 14  1  0
 14 15  2  0
 15 16  1  0
 16 17  2  0
 17 18  1  0
 18 19  2  0
 19 14  1  0
  2 20  1  0
 20 21  1  0
 21 22  1  0
 22 23  1  0
 23 24  1  0
 24 25  1  0
 25 26  1  0
 26 21  1  0
 24 27  1  0
 23 28  1  0
M  CHG  1  24   1
M  END
$$$$
s_2708____9434212____4066176
     RDKit          3D

 24 25  0  0  0  0  0  0  0  0999 V2000
    6.6000   -0.6007    5.9456 Cl  0  0  0  0  0  0  0  0  0  0  0  0
    5.5733   -0.5035    4.4950 C   0  0  0  0  0  0  0  0  0  0  0  0
    4.2298   -0.1678    4.6198 C   0  0  0  0  0  0  0  0  0  0  0  0
    3.4235   -0.0914    3.4886 C   0  0  0  0  0  0  0  0  0  0  0  0
    3.9785   -0.3535    2.2406 C   0  0  0  0  0  0  0  0  0  0  0  0
    5.3219   -0.6895    2.1153 C   0  0  0  0  0  0  0  0  0  0  0  0
    6.1283   -0.7660    3.2467 C   0  0  0  0  0  0  0  0  0  0  0  0
    3.1050   -0.2731    1.0000 C   0  0  0  0  0  0  0  0  0  0  0  0
    2.3700    1.0000    1.0000 N   0  0  0  0  0  0  0  0  0  0  0  0
    1.0000    1.0000    1.0000 C   0  0  0  0  0  0  0  0  0  0  0  0
    0.4000   -0.0392    1.0000 O   0  0  0  0  0  0  0  0  0  0  0  0
    0.3150    2.1865    1.0000 N   0  0  0  0  0  0  0  0  0  0  0  0
   -1.1579    2.1865    1.0000 C   0  0  0  0  0  0  0  0  0  0  0  0
   -1.6764    2.9014   -0.2383 C   0  0  0  0  0  0  0  0  0  0  0  0
   -3.1967    2.9167   -0.2204 C   0  0  0  0  0  0  0  0  0  0  0  0
   -3.7064    3.5736    0.9927 N   0  0  0  0  0  0  0  0  0  0  0  0
   -5.1780    3.6142    0.9930 C   0  0  0  0  0  0  0  0  0  0  0  0
   -5.6657    4.2987    2.2595 C   0  0  0  0  0  0  0  0  0  0  0  0
   -6.0315    4.8121    3.2094 N   0  0  0  0  0  0  0  0  0  0  0  0
   -3.2057    2.9235    2.2133 C   0  0  0  0  0  0  0  0  0  0  0  0
   -1.6855    2.9081    2.2297 C   0  0  0  0  0  0  0  0  0  0  0  0
    3.9789   -0.3536   -0.2411 C   0  0  0  0  0  0  0  0  0  0  0  0
    3.1625   -0.2784   -1.4005 O   0  0  0  0  0  0  0  0  0  0  0  0
    2.7675   -1.5864   -1.7870 C   0  0  0  0  0  0  0  0  0  0  0  0
  1  2  1  0
  2  3  2  0
  3  4  1  0
  4  5  2  0
  5  6  1  0
  6  7  2  0
  7  2  1  0
  5  8  1  0
  8  9  1  0
  9 10  1  0
 10 11  2  0
 10 12  1  0
 12 13  1  0
 13 14  1  0
 14 15  1  0
 15 16  1  0
 16 17  1  0
 17 18  1  0
 18 19  3  0
 16 20  1  0
 20 21  1  0
 21 13  1  0
  8 22  1  0
 22 23  1  0
 23 24  1  0
M  CHG  1  16   1
M  END
$$$$
s_22____12110726____17513450
     RDKit          3D

 27 29  0  0  0  0  0  0  0  0999 V2000
    1.4147    2.4076    2.8496 O   0  0  0  0  0  0  0  0  0  0  0  0
    1.8776    1.8776    1.8776 C   0  0  0  0  0  0  0  0  0  0  0  0
    3.2247    2.0673    1.5521 N   0  0  0  0  0  0  0  0  0  0  0  0
    3.9589    3.1648    2.2044 C   0  0  0  0  0  0  0  0  0  0  0  0
    5.4269    2.8279    2.4317 C   0  0  0  0  0  0  0  0  0  0  0  0
    6.0780    2.1609    1.2277 C   0  0  0  0  0  0  0  0  0  0  0  0
    7.4465    1.7785    1.6076 N   0  0  0  0  0  0  0  0  0  0  0  0
    8.2392    2.9934    1.8346 C   0  0  0  0  0  0  0  0  0  0  0  0
    9.6644    2.4963    1.7122 C   0  0  0  0  0  0  0  0  0  0  0  0
   10.5513    3.5788    1.4683 O   0  0  0  0  0  0  0  0  0  0  0  0
    9.5560    1.5943    0.4952 C   0  0  0  0  0  0  0  0  0  0  0  0
    8.1114    1.1443    0.4630 C   0  0  0  0  0  0  0  0  0  0  0  0
    5.3102    0.8894    0.8926 C   0  0  0  0  0  0  0  0  0  0  0  0
    3.8431    1.1516    0.5790 C   0  0  0  0  0  0  0  0  0  0  0  0
    1.0000    1.0000    1.0000 C   0  0  0  0  0  0  0  0  0  0  0  0
   -0.2629    0.7171    1.6971 N   0  0  0  0  0  0  0  0  0  0  0  0
   -0.6150   -0.5766    1.9787 C   0  0  0  0  0  0  0  0  0  0  0  0
    0.1075   -1.4788    1.6563 O   0  0  0  0  0  0  0  0  0  0  0  0
   -1.9209   -0.8691    2.6995 C   0  0  0  0  0  0  0  0  0  0  0  0
    0.7075    1.7208   -0.3059 C   0  0  0  0  0  0  0  0  0  0  0  0
    0.3370    0.7044   -1.3737 C   0  0  0  0  0  0  0  0  0  0  0  0
    1.3360    0.1515   -2.1682 C   0  0  0  0  0  0  0  0  0  0  0  0
    1.0019   -0.7794   -3.1460 C   0  0  0  0  0  0  0  0  0  0  0  0
   -0.3293   -1.1464   -3.3166 C   0  0  0  0  0  0  0  0  0  0  0  0
   -0.6580   -2.0493   -4.2646 O   0  0  0  0  0  0  0  0  0  0  0  0
   -1.3322   -0.5963   -2.5250 C   0  0  0  0  0  0  0  0  0  0  0  0
   -0.9924    0.3339   -1.5484 C   0  0  0  0  0  0  0  0  0  0  0  0
  1  2  2  0
  2  3  1  0
  3  4  1  0
  4  5  1  0
  5  6  1  0
  6  7  1  0
  7  8  1  0
  8  9  1  0
  9 10  1  0
  9 11  1  0
 11 12  1  0
 12  7  1  0
  6 13  1  0
 13 14  1  0
 14  3  1  0
  2 15  1  0
 15 16  1  0
 16 17  1  0
 17 18  2  0
 17 19  1  0
 15 20  1  0
 20 21  1  0
 21 22  2  0
 22 23  1  0
 23 24  2  0
 24 25  1  0
 24 26  1  0
 26 27  2  0
 27 21  1  0
M  CHG  1   7   1
M  END
$$$$
s_22____13656652____107338
     RDKit          3D

 29 30  0  0  0  0  0  0  0  0999 V2000
    8.3284    1.5072    1.4323 F   0  0  0  0  0  0  0  0  0  0  0  0
    8.0031    0.2180    1.4670 C   0  0  0  0  0  0  0  0  0  0  0  0
    7.1924   -0.0070    2.4971 F   0  0  0  0  0  0  0  0  0  0  0  0
    9.1054   -0.5139    1.6022 F   0  0  0  0  0  0  0  0  0  0  0  0
    7.2981   -0.1616    0.1750 C   0  0  0  0  0  0  0  0  0  0  0  0
    6.4327    0.9463   -0.2547 N   0  0  0  0  0  0  0  0  0  0  0  0
    5.2323    0.9881    0.5937 C   0  0  0  0  0  0  0  0  0  0  0  0
    4.4124    2.2046    0.1877 C   0  0  0  0  0  0  0  0  0  0  0  0
    3.0967    2.2953    0.9475 C   0  0  0  0  0  0  0  0  0  0  0  0
    2.3981    1.0000    1.0000 N   0  0  0  0  0  0  0  0  0  0  0  0
    1.0000    1.0000    1.0000 C   0  0  0  0  0  0  0  0  0  0  0  0
    0.4000    2.0308    0.8676 O   0  0  0  0  0  0  0  0  0  0  0  0
    0.2400   -0.3056    1.1677 C   0  0  0  0  0  0  0  0  0  0  0  0
   -0.9641   -0.3138    0.2401 C   0  0  0  0  0  0  0  0  0  0  0  0
   -1.6991   -1.5765    0.4023 N   0  0  0  0  0  0  0  0  0  0  0  0
   -3.0071   -1.5602    0.8093 C   0  0  0  0  0  0  0  0  0  0  0  0
   -3.5528   -0.5153    1.0334 O   0  0  0  0  0  0  0  0  0  0  0  0
   -3.7671   -2.8659    0.9771 C   0  0  0  0  0  0  0  0  0  0  0  0
   -0.4952   -0.1818   -1.1998 C   0  0  0  0  0  0  0  0  0  0  0  0
    0.3965   -1.1155   -1.7175 C   0  0  0  0  0  0  0  0  0  0  0  0
    0.8276   -0.9992   -3.0347 C   0  0  0  0  0  0  0  0  0  0  0  0
    0.3603    0.0509   -3.8187 C   0  0  0  0  0  0  0  0  0  0  0  0
    0.7764    0.1677   -5.0975 O   0  0  0  0  0  0  0  0  0  0  0  0
    1.1971   -0.9831   -5.8152 C   0  0  0  0  0  0  0  0  0  0  0  0
   -0.5312    0.9876   -3.3057 C   0  0  0  0  0  0  0  0  0  0  0  0
   -0.9594    0.8662   -1.9881 C   0  0  0  0  0  0  0  0  0  0  0  0
    3.0978   -0.2951    1.0453 C   0  0  0  0  0  0  0  0  0  0  0  0
    4.4180   -0.2617    0.2874 C   0  0  0  0  0  0  0  0  0  0  0  0
    6.0358    0.7431   -1.6555 C   0  0  0  0  0  0  0  0  0  0  0  0
  1  2  1  0
  2  3  1  0
  2  4  1  0
  2  5  1  0
  5  6  1  0
  6  7  1  0
  7  8  1  0
  8  9  1  0
  9 10  1  0
 10 11  1  0
 11 12  2  0
 11 13  1  0
 13 14  1  0
 14 15  1  0
 15 16  1  0
 16 17  2  0
 16 18  1  0
 14 19  1  0
 19 20  2  0
 20 21  1  0
 21 22  2  0
 22 23  1  0
 23 24  1  0
 22 25  1  0
 25 26  2  0
 26 19  1  0
 10 27  1  0
 27 28  1  0
 28  7  1  0
  6 29  1  0
M  CHG  1   6   1
M  END
$$$$
s_22____6166698____3192126
     RDKit          3D

 29 30  0  0  0  0  0  0  0  0999 V2000
    6.4951   -1.7248    7.8336 F   0  0  0  0  0  0  0  0  0  0  0  0
    5.9097   -2.4962    6.9220 C   0  0  0  0  0  0  0  0  0  0  0  0
    5.5250   -3.6369    7.4875 F   0  0  0  0  0  0  0  0  0  0  0  0
    4.6964   -1.7780    6.3540 C   0  0  0  0  0  0  0  0  0  0  0  0
    5.1216   -0.5172    5.7290 N   0  0  0  0  0  0  0  0  0  0  0  0
    3.9478    0.1777    5.1795 C   0  0  0  0  0  0  0  0  0  0  0  0
    4.4256    1.4748    4.5422 C   0  0  0  0  0  0  0  0  0  0  0  0
    3.2966    2.2351    3.8613 C   0  0  0  0  0  0  0  0  0  0  0  0
    2.4528    1.3522    3.0385 N   0  0  0  0  0  0  0  0  0  0  0  0
    1.8776    1.8776    1.8776 C   0  0  0  0  0  0  0  0  0  0  0  0
    2.0766    3.0213    1.5740 O   0  0  0  0  0  0  0  0  0  0  0  0
    1.0000    1.0000    1.0000 C   0  0  0  0  0  0  0  0  0  0  0  0
    0.7075    1.7208   -0.3059 C   0  0  0  0  0  0  0  0  0  0  0  0
   -0.2825    0.9552   -1.0771 N   0  0  0  0  0  0  0  0  0  0  0  0
   -1.4824    1.5266   -1.4097 C   0  0  0  0  0  0  0  0  0  0  0  0
   -1.7253    2.6520   -1.0715 O   0  0  0  0  0  0  0  0  0  0  0  0
   -2.5060    0.7349   -2.2071 C   0  0  0  0  0  0  0  0  0  0  0  0
    1.9899    1.8484   -1.1126 C   0  0  0  0  0  0  0  0  0  0  0  0
    2.3107    3.0573   -1.7222 C   0  0  0  0  0  0  0  0  0  0  0  0
    1.4943    4.1268   -1.6080 O   0  0  0  0  0  0  0  0  0  0  0  0
    1.9297    5.4031   -2.0527 C   0  0  0  0  0  0  0  0  0  0  0  0
    0.8309    6.4254   -1.8122 C   0  0  0  0  0  0  0  0  0  0  0  0
    3.4842    3.1740   -2.4607 C   0  0  0  0  0  0  0  0  0  0  0  0
    4.3369    2.0819   -2.5890 C   0  0  0  0  0  0  0  0  0  0  0  0
    4.0159    0.8734   -1.9787 C   0  0  0  0  0  0  0  0  0  0  0  0
    2.8428    0.7571   -1.2402 C   0  0  0  0  0  0  0  0  0  0  0  0
    2.1905   -0.0578    3.3730 C   0  0  0  0  0  0  0  0  0  0  0  0
    3.3690   -0.7084    4.0845 C   0  0  0  0  0  0  0  0  0  0  0  0
    6.0730   -0.8038    4.6456 C   0  0  0  0  0  0  0  0  0  0  0  0
  1  2  1  0
  2  3  1  0
  2  4  1  0
  4  5  1  0
  5  6  1  0
  6  7  1  0
  7  8  1  0
  8  9  1  0
  9 10  1  0
 10 11  2  0
 10 12  1  0
 12 13  1  0
 13 14  1  0
 14 15  1  0
 15 16  2  0
 15 17  1  0
 13 18  1  0
 18 19  2  0
 19 20  1  0
 20 21  1  0
 21 22  1  0
 19 23  1  0
 23 24  2  0
 24 25  1  0
 25 26  2  0
 26 18  1  0
  9 27  1  0
 27 28  1  0
 28  6  1  0
  5 29  1  0
M  CHG  1   5   1
M  END
$$$$
s_22____8926094____17513450
     RDKit          3D

 24 25  0  0  0  0  0  0  0  0999 V2000
    0.4000   -0.0392    1.0000 O   0  0  0  0  0  0  0  0  0  0  0  0
    1.0000    1.0000    1.0000 C   0  0  0  0  0  0  0  0  0  0  0  0
    2.3700    1.0000    1.0000 N   0  0  0  0  0  0  0  0  0  0  0  0
    3.1050   -0.2731    1.0000 C   0  0  0  0  0  0  0  0  0  0  0  0
    3.3583   -0.7118   -0.4331 C   0  0  0  0  0  0  0  0  0  0  0  0
    4.0933   -1.9849   -0.4331 N   0  0  0  0  0  0  0  0  0  0  0  0
    4.3381   -2.4088   -1.8175 C   0  0  0  0  0  0  0  0  0  0  0  0
    5.1482   -1.3938   -2.5711 C   0  0  0  0  0  0  0  0  0  0  0  0
    3.6690   -1.5017   -2.8097 C   0  0  0  0  0  0  0  0  0  0  0  0
    5.3778   -1.8091    0.2599 C   0  0  0  0  0  0  0  0  0  0  0  0
    3.1050    2.2731    1.0000 C   0  0  0  0  0  0  0  0  0  0  0  0
    0.2400    2.3164    1.0000 C   0  0  0  0  0  0  0  0  0  0  0  0
   -1.0444    2.1406    1.6930 N   0  0  0  0  0  0  0  0  0  0  0  0
   -1.1292    2.3553    3.0434 C   0  0  0  0  0  0  0  0  0  0  0  0
   -0.1550    2.6868    3.6605 O   0  0  0  0  0  0  0  0  0  0  0  0
   -2.4574    2.1735    3.7599 C   0  0  0  0  0  0  0  0  0  0  0  0
   -0.0133    2.7551   -0.4331 C   0  0  0  0  0  0  0  0  0  0  0  0
   -0.7734    4.0715   -0.4331 C   0  0  0  0  0  0  0  0  0  0  0  0
   -0.0668    5.2697   -0.4331 C   0  0  0  0  0  0  0  0  0  0  0  0
   -0.7580    6.4767   -0.4338 C   0  0  0  0  0  0  0  0  0  0  0  0
   -2.1493    6.4698   -0.4351 C   0  0  0  0  0  0  0  0  0  0  0  0
   -2.8591    7.6996   -0.4355 O   0  0  0  0  0  0  0  0  0  0  0  0
   -2.8607    5.2743   -0.4347 C   0  0  0  0  0  0  0  0  0  0  0  0
   -2.1644    4.0703   -0.4344 C   0  0  0  0  0  0  0  0  0  0  0  0
  1  2  2  0
  2  3  1  0
  3  4  1  0
  4  5  1  0
  5  6  1  0
  6  7  1  0
  7  8  1  0
  8  9  1  0
  9  7  1  0
  6 10  1  0
  3 11  1  0
  2 12  1  0
 12 13  1  0
 13 14  1  0
 14 15  2  0
 14 16  1  0
 12 17  1  0
 17 18  1  0
 18 19  2  0
 19 20  1  0
 20 21  2  0
 21 22  1  0
 21 23  1  0
 23 24  2  0
 24 18  1  0
M  CHG  1   6   1
M  END
$$$$
s_269946a____8602342____17513468
     RDKit          3D

 24 24  0  0  0  0  0  0  0  0999 V2000
    2.2269    6.4781    4.9962 O   0  0  0  0  0  0  0  0  0  0  0  0
    1.8776    5.3879    5.3879 C   0  0  0  0  0  0  0  0  0  0  0  0
    2.2384    4.9832    6.5142 O   0  0  0  0  0  0  0  0  0  0  0  0
    1.0000    4.5103    4.5103 C   0  0  0  0  0  0  0  0  0  0  0  0
    1.8776    3.6327    3.6327 C   0  0  0  0  0  0  0  0  0  0  0  0
    1.0000    2.7551    2.7551 C   0  0  0  0  0  0  0  0  0  0  0  0
    1.8776    1.8776    1.8776 C   0  0  0  0  0  0  0  0  0  0  0  0
    1.0000    1.0000    1.0000 C   0  0  0  0  0  0  0  0  0  0  0  0
    1.8487    0.1513    0.1513 N   0  0  0  0  0  0  0  0  0  0  0  0
    2.2442   -1.0831    0.5948 C   0  0  0  0  0  0  0  0  0  0  0  0
    1.8978   -1.4716    1.6760 O   0  0  0  0  0  0  0  0  0  0  0  0
    3.1218   -1.9607   -0.2828 C   0  0  0  0  0  0  0  0  0  0  0  0
    2.8389   -3.3752    0.0001 N   0  0  0  0  0  0  0  0  0  0  0  0
    1.8681   -4.0344   -0.7070 C   0  0  0  0  0  0  0  0  0  0  0  0
    1.2487   -3.4570   -1.5573 O   0  0  0  0  0  0  0  0  0  0  0  0
    1.5756   -5.4970   -0.4145 C   0  0  0  0  0  0  0  0  0  0  0  0
    4.5844   -1.6682    0.0097 C   0  0  0  0  0  0  0  0  0  0  0  0
    5.4620   -2.5458   -0.8679 C   0  0  0  0  0  0  0  0  0  0  0  0
    5.8571   -2.0846   -2.1193 C   0  0  0  0  0  0  0  0  0  0  0  0
    6.6607   -2.8838   -2.9255 C   0  0  0  0  0  0  0  0  0  0  0  0
    7.0599   -4.1359   -2.4687 C   0  0  0  0  0  0  0  0  0  0  0  0
    7.8801   -4.9555   -3.2885 O   0  0  0  0  0  0  0  0  0  0  0  0
    6.6673   -4.6021   -1.2181 C   0  0  0  0  0  0  0  0  0  0  0  0
    5.8640   -3.7985   -0.4160 C   0  0  0  0  0  0  0  0  0  0  0  0
  1  2  1  0
  2  3  2  0
  2  4  1  0
  4  5  1  0
  5  6  1  0
  6  7  1  0
  7  8  1  0
  8  9  1  0
  9 10  1  0
 10 11  2  0
 10 12  1  0
 12 13  1  0
 13 14  1  0
 14 15  2  0
 14 16  1  0
 12 17  1  0
 17 18  1  0
 18 19  2  0
 19 20  1  0
 20 21  2  0
 21 22  1  0
 21 23  1  0
 23 24  2  0
 24 18  1  0
M  CHG  1   1  -1
M  END
$$$$
s_22____14051328____107332
     RDKit          3D

 25 27  0  0  0  0  0  0  0  0999 V2000
   -3.3768    6.0971    0.6680 Cl  0  0  0  0  0  0  0  0  0  0  0  0
   -2.1794    4.8116    0.3821 C   0  0  0  0  0  0  0  0  0  0  0  0
   -2.4888    3.4945    0.7027 C   0  0  0  0  0  0  0  0  0  0  0  0
   -1.5555    2.4868    0.4815 C   0  0  0  0  0  0  0  0  0  0  0  0
   -0.3179    2.8150   -0.0617 C   0  0  0  0  0  0  0  0  0  0  0  0
   -0.0080    4.1321   -0.3821 C   0  0  0  0  0  0  0  0  0  0  0  0
   -0.9415    5.1400   -0.1609 C   0  0  0  0  0  0  0  0  0  0  0  0
    0.7075    1.7208   -0.3059 C   0  0  0  0  0  0  0  0  0  0  0  0
    0.1774    0.7625   -1.2864 N   0  0  0  0  0  0  0  0  0  0  0  0
    0.8400    0.5533   -2.4671 C   0  0  0  0  0  0  0  0  0  0  0  0
    1.8532    1.1524   -2.7009 O   0  0  0  0  0  0  0  0  0  0  0  0
    0.2918   -0.4376   -3.4811 C   0  0  0  0  0  0  0  0  0  0  0  0
    1.0000    1.0000    1.0000 C   0  0  0  0  0  0  0  0  0  0  0  0
    1.8776    1.8776    1.8776 C   0  0  0  0  0  0  0  0  0  0  0  0
    1.9688    3.0524    1.6507 O   0  0  0  0  0  0  0  0  0  0  0  0
    2.5644    1.3273    2.9275 N   0  0  0  0  0  0  0  0  0  0  0  0
    3.4131    2.1760    3.7762 C   0  0  0  0  0  0  0  0  0  0  0  0
    2.5450    2.9167    4.7816 C   0  0  0  0  0  0  0  0  0  0  0  0
    3.3558    3.8023    5.6795 C   0  0  0  0  0  0  0  0  0  0  0  0
    4.6552    3.8747    5.3901 F   0  0  0  0  0  0  0  0  0  0  0  0
    2.7151    4.9094    6.0381 F   0  0  0  0  0  0  0  0  0  0  0  0
    2.8060    2.5091    6.2058 C   0  0  0  0  0  0  0  0  0  0  0  0
    3.5498    1.3443    6.8214 C   0  0  0  0  0  0  0  0  0  0  0  0
    2.2047    0.7673    7.1850 C   0  0  0  0  0  0  0  0  0  0  0  0
    1.8199    2.2196    7.3177 C   0  0  0  0  0  0  0  0  0  0  0  0
  1  2  1  0
  2  3  2  0
  3  4  1  0
  4  5  2  0
  5  6  1  0
  6  7  2  0
  7  2  1  0
  5  8  1  0
  8  9  1  0
  9 10  1  0
 10 11  2  0
 10 12  1  0
  8 13  1  0
 13 14  1  0
 14 15  2  0
 14 16  1  0
 16 17  1  0
 17 18  1  0
 18 19  1  0
 19 20  1  0
 19 21  1  0
 19 22  1  0
 22 18  1  0
 22 23  1  0
 23 24  1  0
 24 25  1  0
 25 22  1  0
M  END
$$$$
s_22____662376____17513450
     RDKit          3D

 28 30  0  0  0  0  0  0  0  0999 V2000
    0.4000    1.0000   -0.0392 O   0  0  0  0  0  0  0  0  0  0  0  0
    1.0000    1.0000    1.0000 C   0  0  0  0  0  0  0  0  0  0  0  0
    0.3150    1.0000    2.1865 N   0  0  0  0  0  0  0  0  0  0  0  0
   -1.1550    1.0000    2.1865 C   0  0  0  0  0  0  0  0  0  0  0  0
   -1.6617   -0.4331    2.1865 C   0  0  0  0  0  0  0  0  0  0  0  0
   -1.1858   -1.1925    3.4020 C   0  0  0  0  0  0  0  0  0  0  0  0
   -2.2199   -2.2194    3.5518 N   0  0  0  0  0  0  0  0  0  0  0  0
   -1.9970   -3.5303    3.9904 C   0  0  0  0  0  0  0  0  0  0  0  0
   -3.0666   -4.4143    4.0906 C   0  0  0  0  0  0  0  0  0  0  0  0
   -2.8412   -5.7159    4.5265 C   0  0  0  0  0  0  0  0  0  0  0  0
   -1.5541   -6.1249    4.8583 C   0  0  0  0  0  0  0  0  0  0  0  0
   -0.4921   -5.2328    4.7537 C   0  0  0  0  0  0  0  0  0  0  0  0
   -0.7055   -3.9288    4.3192 C   0  0  0  0  0  0  0  0  0  0  0  0
   -3.5162   -1.6567    3.1587 C   0  0  0  0  0  0  0  0  0  0  0  0
   -3.1725   -0.4624    2.2822 C   0  0  0  0  0  0  0  0  0  0  0  0
    2.5200    1.0000    1.0000 C   0  0  0  0  0  0  0  0  0  0  0  0
    3.0100    1.6930   -0.2002 N   0  0  0  0  0  0  0  0  0  0  0  0
    3.2383    3.0434   -0.1663 C   0  0  0  0  0  0  0  0  0  0  0  0
    3.0383    3.6605    0.8432 O   0  0  0  0  0  0  0  0  0  0  0  0
    3.7450    3.7599   -1.4074 C   0  0  0  0  0  0  0  0  0  0  0  0
    3.0267   -0.4331    1.0000 C   0  0  0  0  0  0  0  0  0  0  0  0
    4.5467   -0.4331    1.0000 C   0  0  0  0  0  0  0  0  0  0  0  0
    5.2311   -0.4331    2.2110 C   0  0  0  0  0  0  0  0  0  0  0  0
    6.6219   -0.4338    2.2159 C   0  0  0  0  0  0  0  0  0  0  0  0
    7.3116   -0.4351    1.0075 C   0  0  0  0  0  0  0  0  0  0  0  0
    8.7316   -0.4355    1.0077 O   0  0  0  0  0  0  0  0  0  0  0  0
    6.6320   -0.4347   -0.2063 C   0  0  0  0  0  0  0  0  0  0  0  0
    5.2412   -0.4344   -0.2053 C   0  0  0  0  0  0  0  0  0  0  0  0
  1  2  2  0
  2  3  1  0
  3  4  1  0
  4  5  1  0
  5  6  1  0
  6  7  1  0
  7  8  1  0
  8  9  2  0
  9 10  1  0
 10 11  2  0
 11 12  1  0
 12 13  2  0
 13  8  1  0
  7 14  1  0
 14 15  1  0
 15  5  1  0
  2 16  1  0
 16 17  1  0
 17 18  1  0
 18 19  2  0
 18 20  1  0
 16 21  1  0
 21 22  1  0
 22 23  2  0
 23 24  1  0
 24 25  2  0
 25 26  1  0
 25 27  1  0
 27 28  2  0
 28 22  1  0
M  END
$$$$
s_2708____5730620____6007258
     RDKit          3D

 22 23  0  0  0  0  0  0  0  0999 V2000
    0.9150    1.0000    3.2257 O   0  0  0  0  0  0  0  0  0  0  0  0
    0.3150    1.0000    2.1865 C   0  0  0  0  0  0  0  0  0  0  0  0
   -1.0550    1.0000    2.1865 N   0  0  0  0  0  0  0  0  0  0  0  0
   -1.7913    1.0000    3.4617 C   0  0  0  0  0  0  0  0  0  0  0  0
   -2.6682    2.2383    3.5508 C   0  0  0  0  0  0  0  0  0  0  0  0
   -3.4430    2.2184    4.8585 C   0  0  0  0  0  0  0  0  0  0  0  0
   -4.2598    0.9989    4.9586 N   0  0  0  0  0  0  0  0  0  0  0  0
   -3.4418   -0.2190    4.8603 C   0  0  0  0  0  0  0  0  0  0  0  0
   -2.6698   -0.2376    3.5506 C   0  0  0  0  0  0  0  0  0  0  0  0
   -4.9837    0.9541    6.2377 C   0  0  0  0  0  0  0  0  0  0  0  0
   -4.3089    3.4667    4.9138 C   0  0  0  0  0  0  0  0  0  0  0  0
    1.0000    1.0000    1.0000 N   0  0  0  0  0  0  0  0  0  0  0  0
    2.4700    1.0000    1.0000 C   0  0  0  0  0  0  0  0  0  0  0  0
    2.9767   -0.4332    1.0000 C   0  0  0  0  0  0  0  0  0  0  0  0
    3.2086   -1.0891   -0.2051 C   0  0  0  0  0  0  0  0  0  0  0  0
    2.9832   -0.4527   -1.3744 O   0  0  0  0  0  0  0  0  0  0  0  0
    3.6729   -2.4002   -0.1923 C   0  0  0  0  0  0  0  0  0  0  0  0
    3.8988   -3.0362   -1.3606 O   0  0  0  0  0  0  0  0  0  0  0  0
    4.3728   -4.3748   -1.3602 C   0  0  0  0  0  0  0  0  0  0  0  0
    3.9081   -3.0649    1.0067 C   0  0  0  0  0  0  0  0  0  0  0  0
    3.6726   -2.4003    2.2054 C   0  0  0  0  0  0  0  0  0  0  0  0
    3.2087   -1.0890    2.2053 C   0  0  0  0  0  0  0  0  0  0  0  0
  1  2  2  0
  2  3  1  0
  3  4  1  0
  4  5  1  0
  5  6  1  0
  6  7  1  0
  7  8  1  0
  8  9  1  0
  9  4  1  0
  7 10  1  0
  6 11  1  0
  2 12  1  0
 12 13  1  0
 13 14  1  0
 14 15  2  0
 15 16  1  0
 15 17  1  0
 17 18  1  0
 18 19  1  0
 17 20  2  0
 20 21  1  0
 21 22  2  0
 22 14  1  0
M  CHG  1   7   1
M  END
$$$$
s_2708____6583376____10691088
     RDKit          3D

 24 25  0  0  0  0  0  0  0  0999 V2000
    4.1074   -2.0326   -4.7169 Cl  0  0  0  0  0  0  0  0  0  0  0  0
    3.8142   -1.5149   -3.0392 C   0  0  0  0  0  0  0  0  0  0  0  0
    4.7452   -0.7111   -2.3907 C   0  0  0  0  0  0  0  0  0  0  0  0
    4.5203   -0.3048   -1.0793 C   0  0  0  0  0  0  0  0  0  0  0  0
    3.3582   -0.7117   -0.4325 C   0  0  0  0  0  0  0  0  0  0  0  0
    2.4271   -1.5156   -1.0805 C   0  0  0  0  0  0  0  0  0  0  0  0
    2.6520   -1.9221   -2.3922 C   0  0  0  0  0  0  0  0  0  0  0  0
    3.1050   -0.2731    1.0000 C   0  0  0  0  0  0  0  0  0  0  0  0
    2.3700    1.0000    1.0000 N   0  0  0  0  0  0  0  0  0  0  0  0
    1.0000    1.0000    1.0000 C   0  0  0  0  0  0  0  0  0  0  0  0
    0.4000   -0.0392    1.0000 O   0  0  0  0  0  0  0  0  0  0  0  0
    0.3150    2.1865    1.0000 N   0  0  0  0  0  0  0  0  0  0  0  0
   -1.1547    2.1865    1.0000 C   0  0  0  0  0  0  0  0  0  0  0  0
   -1.6773    2.1865    2.4275 C   0  0  0  0  0  0  0  0  0  0  0  0
   -3.1974    2.1893    2.4316 C   0  0  0  0  0  0  0  0  0  0  0  0
   -3.6945    2.1983    3.8150 N   0  0  0  0  0  0  0  0  0  0  0  0
   -5.1645    2.2010    3.8074 C   0  0  0  0  0  0  0  0  0  0  0  0
   -3.2103    1.0013    4.5175 C   0  0  0  0  0  0  0  0  0  0  0  0
   -3.7049    3.4158    1.6906 C   0  0  0  0  0  0  0  0  0  0  0  0
   -3.1937    3.4170    0.2588 C   0  0  0  0  0  0  0  0  0  0  0  0
   -1.6731    3.4109    0.2629 C   0  0  0  0  0  0  0  0  0  0  0  0
    3.1050    2.2731    1.0000 C   0  0  0  0  0  0  0  0  0  0  0  0
    4.4331   -0.0913    1.7165 C   0  0  0  0  0  0  0  0  0  0  0  0
    5.1431   -1.3211    1.7165 O   0  0  0  0  0  0  0  0  0  0  0  0
  1  2  1  0
  2  3  2  0
  3  4  1  0
  4  5  2  0
  5  6  1  0
  6  7  2  0
  7  2  1  0
  5  8  1  0
  8  9  1  0
  9 10  1  0
 10 11  2  0
 10 12  1  0
 12 13  1  0
 13 14  1  0
 14 15  1  0
 15 16  1  0
 16 17  1  0
 16 18  1  0
 15 19  1  0
 19 20  1  0
 20 21  1  0
 21 13  1  0
  9 22  1  0
  8 23  1  0
 23 24  1  0
M  CHG  1  16   1
M  END
$$$$
s_512____6885310____8363400
     RDKit          3D

 26 27  0  0  0  0  0  0  0  0999 V2000
    9.2720   -0.0619   -0.7515 O   0  0  0  0  0  0  0  0  0  0  0  0
    8.6614   -0.2442    0.2889 N   0  0  0  0  0  0  0  0  0  0  0  0
    9.2659   -0.4259    1.3212 O   0  0  0  0  0  0  0  0  0  0  0  0
    7.2611   -0.2432    0.2884 C   0  0  0  0  0  0  0  0  0  0  0  0
    6.5681   -0.4516    1.4762 C   0  0  0  0  0  0  0  0  0  0  0  0
    5.1768   -0.4518    1.4787 C   0  0  0  0  0  0  0  0  0  0  0  0
    4.4966   -0.2411    0.2835 C   0  0  0  0  0  0  0  0  0  0  0  0
    5.1872   -0.0326   -0.9058 C   0  0  0  0  0  0  0  0  0  0  0  0
    6.5783   -0.0332   -0.9050 C   0  0  0  0  0  0  0  0  0  0  0  0
    2.9767   -0.2411    0.2835 C   0  0  0  0  0  0  0  0  0  0  0  0
    2.5033   -1.4005    0.9529 O   0  0  0  0  0  0  0  0  0  0  0  0
    2.4700    1.0000    1.0000 C   0  0  0  0  0  0  0  0  0  0  0  0
    1.0000    1.0000    1.0000 N   0  0  0  0  0  0  0  0  0  0  0  0
    0.3150    1.0000    2.1865 C   0  0  0  0  0  0  0  0  0  0  0  0
    0.9150    1.0000    3.2257 O   0  0  0  0  0  0  0  0  0  0  0  0
   -1.0550    1.0000    2.1865 N   0  0  0  0  0  0  0  0  0  0  0  0
   -1.7908    1.0000    3.4609 C   0  0  0  0  0  0  0  0  0  0  0  0
   -2.6695   -0.2375    3.5539 C   0  0  0  0  0  0  0  0  0  0  0  0
   -3.4432   -0.2134    4.8627 C   0  0  0  0  0  0  0  0  0  0  0  0
   -4.2610    1.0050    4.9718 N   0  0  0  0  0  0  0  0  0  0  0  0
   -3.4386    2.2199    4.8742 C   0  0  0  0  0  0  0  0  0  0  0  0
   -2.6701    2.2361    3.5626 C   0  0  0  0  0  0  0  0  0  0  0  0
   -4.9838    1.0455    6.2516 C   0  0  0  0  0  0  0  0  0  0  0  0
   -4.3079   -1.4624    4.9222 C   0  0  0  0  0  0  0  0  0  0  0  0
    2.9767    2.2411    0.2835 C   0  0  0  0  0  0  0  0  0  0  0  0
    2.5033    3.4005    0.9529 O   0  0  0  0  0  0  0  0  0  0  0  0
  1  2  1  0
  2  3  2  0
  2  4  1  0
  4  5  2  0
  5  6  1  0
  6  7  2  0
  7  8  1  0
  8  9  2  0
  9  4  1  0
  7 10  1  0
 10 11  1  0
 10 12  1  0
 12 13  1  0
 13 14  1  0
 14 15  2  0
 14 16  1  0
 16 17  1  0
 17 18  1  0
 18 19  1  0
 19 20  1  0
 20 21  1  0
 21 22  1  0
 22 17  1  0
 20 23  1  0
 19 24  1  0
 12 25  1  0
 25 26  1  0
M  CHG  3   1  -1   2   1  20   1
M  END
$$$$
s_512____6885310____5343646
     RDKit          3D

 25 26  0  0  0  0  0  0  0  0999 V2000
   -3.2698    4.6408    4.0589 O   0  0  0  0  0  0  0  0  0  0  0  0
   -2.7111    5.3837    4.8178 C   0  0  0  0  0  0  0  0  0  0  0  0
   -3.3498    6.4134    5.3157 O   0  0  0  0  0  0  0  0  0  0  0  0
   -4.7032    6.6505    4.9573 C   0  0  0  0  0  0  0  0  0  0  0  0
   -1.4054    5.1549    5.1636 N   0  0  0  0  0  0  0  0  0  0  0  0
   -0.5973    4.3469    4.3543 C   0  0  0  0  0  0  0  0  0  0  0  0
   -0.6903    2.9622    4.4457 C   0  0  0  0  0  0  0  0  0  0  0  0
    0.1119    2.1569    3.6433 C   0  0  0  0  0  0  0  0  0  0  0  0
    1.0000    2.7551    2.7551 C   0  0  0  0  0  0  0  0  0  0  0  0
    1.0951    4.1397    2.6618 C   0  0  0  0  0  0  0  0  0  0  0  0
    0.2919    4.9421    3.4655 C   0  0  0  0  0  0  0  0  0  0  0  0
    1.8776    1.8776    1.8776 C   0  0  0  0  0  0  0  0  0  0  0  0
    1.0000    1.0000    1.0000 C   0  0  0  0  0  0  0  0  0  0  0  0
    1.8487    0.1513    0.1513 N   0  0  0  0  0  0  0  0  0  0  0  0
    2.2442   -1.0831    0.5948 C   0  0  0  0  0  0  0  0  0  0  0  0
    1.8978   -1.4716    1.6760 O   0  0  0  0  0  0  0  0  0  0  0  0
    3.0352   -1.8741   -0.1962 N   0  0  0  0  0  0  0  0  0  0  0  0
    3.4602   -3.2009    0.2805 C   0  0  0  0  0  0  0  0  0  0  0  0
    2.4416   -4.2493   -0.1364 C   0  0  0  0  0  0  0  0  0  0  0  0
    2.8999   -5.6189    0.3380 C   0  0  0  0  0  0  0  0  0  0  0  0
    4.2262   -5.9406   -0.2110 N   0  0  0  0  0  0  0  0  0  0  0  0
    5.2329   -4.9358    0.1617 C   0  0  0  0  0  0  0  0  0  0  0  0
    4.8115   -3.5563   -0.3189 C   0  0  0  0  0  0  0  0  0  0  0  0
    4.6929   -7.2478    0.2731 C   0  0  0  0  0  0  0  0  0  0  0  0
    1.8620   -6.6409   -0.0962 C   0  0  0  0  0  0  0  0  0  0  0  0
  1  2  2  0
  2  3  1  0
  3  4  1  0
  2  5  1  0
  5  6  1  0
  6  7  2  0
  7  8  1  0
  8  9  2  0
  9 10  1  0
 10 11  2  0
 11  6  1  0
  9 12  1  0
 12 13  1  0
 13 14  1  0
 14 15  1  0
 15 16  2  0
 15 17  1  0
 17 18  1  0
 18 19  1  0
 19 20  1  0
 20 21  1  0
 21 22  1  0
 22 23  1  0
 23 18  1  0
 21 24  1  0
 20 25  1  0
M  CHG  1  21   1
M  END
$$$$
s_22____16772622____16887748
     RDKit          3D

 29 30  0  0  0  0  0  0  0  0999 V2000
    2.2887   -0.3248   -0.9459 O   0  0  0  0  0  0  0  0  0  0  0  0
    2.9767   -0.0133   -0.0133 C   0  0  0  0  0  0  0  0  0  0  0  0
    4.2447   -0.5827    0.1412 N   0  0  0  0  0  0  0  0  0  0  0  0
    4.8850   -1.1902   -1.0384 C   0  0  0  0  0  0  0  0  0  0  0  0
    5.7055   -2.4265   -0.6964 C   0  0  0  0  0  0  0  0  0  0  0  0
    6.5953   -2.7509   -1.8199 N   0  0  0  0  0  0  0  0  0  0  0  0
    7.9222   -3.1174   -1.3041 C   0  0  0  0  0  0  0  0  0  0  0  0
    6.0356   -3.8790   -2.5783 C   0  0  0  0  0  0  0  0  0  0  0  0
    6.5635   -2.1778    0.5378 C   0  0  0  0  0  0  0  0  0  0  0  0
    5.7413   -1.7629    1.7510 C   0  0  0  0  0  0  0  0  0  0  0  0
    4.8646   -0.5478    1.4775 C   0  0  0  0  0  0  0  0  0  0  0  0
    4.7847   -3.6200   -0.4920 C   0  0  0  0  0  0  0  0  0  0  0  0
    2.4700    1.0000    1.0000 C   0  0  0  0  0  0  0  0  0  0  0  0
    1.0000    1.0000    1.0000 N   0  0  0  0  0  0  0  0  0  0  0  0
    0.3150    1.0000    2.1865 C   0  0  0  0  0  0  0  0  0  0  0  0
    0.9150    1.0000    3.2257 O   0  0  0  0  0  0  0  0  0  0  0  0
   -1.2050    1.0000    2.1865 C   0  0  0  0  0  0  0  0  0  0  0  0
   -1.6783    1.0000    3.5252 O   0  0  0  0  0  0  0  0  0  0  0  0
   -3.0983    1.0000    3.5252 C   0  0  0  0  0  0  0  0  0  0  0  0
   -3.6050    1.0000    4.9583 C   0  0  0  0  0  0  0  0  0  0  0  0
   -3.6050    2.2411    2.8087 C   0  0  0  0  0  0  0  0  0  0  0  0
    2.9767    2.3842    0.6291 C   0  0  0  0  0  0  0  0  0  0  0  0
    3.1456    3.2166    1.8897 C   0  0  0  0  0  0  0  0  0  0  0  0
    4.3633    3.2014    2.5618 C   0  0  0  0  0  0  0  0  0  0  0  0
    4.5227    3.9620    3.7153 C   0  0  0  0  0  0  0  0  0  0  0  0
    3.4605    4.7297    4.1823 C   0  0  0  0  0  0  0  0  0  0  0  0
    3.6107    5.4691    5.3016 O   0  0  0  0  0  0  0  0  0  0  0  0
    2.2404    4.7481    3.5142 C   0  0  0  0  0  0  0  0  0  0  0  0
    2.0867    3.9860    2.3610 C   0  0  0  0  0  0  0  0  0  0  0  0
  1  2  2  0
  2  3  1  0
  3  4  1  0
  4  5  1  0
  5  6  1  0
  6  7  1  0
  6  8  1  0
  5  9  1  0
  9 10  1  0
 10 11  1  0
 11  3  1  0
  5 12  1  0
  2 13  1  0
 13 14  1  0
 14 15  1  0
 15 16  2  0
 15 17  1  0
 17 18  1  0
 18 19  1  0
 19 20  1  0
 19 21  1  0
 13 22  1  0
 22 23  1  0
 23 24  2  0
 24 25  1  0
 25 26  2  0
 26 27  1  0
 26 28  1  0
 28 29  2  0
 29 23  1  0
M  CHG  1   6   1
M  END
$$$$
s_22____6388670____17513450
     RDKit          3D

 28 30  0  0  0  0  0  0  0  0999 V2000
   -5.3670    1.4852    0.0749 O   0  0  0  0  0  0  0  0  0  0  0  0
   -4.7082    0.8971    0.9170 C   0  0  0  0  0  0  0  0  0  0  0  0
   -4.8065    1.1046    2.2924 N   0  0  0  0  0  0  0  0  0  0  0  0
   -3.9238    0.2677    2.9712 C   0  0  0  0  0  0  0  0  0  0  0  0
   -3.7985    0.1994    4.1827 O   0  0  0  0  0  0  0  0  0  0  0  0
   -3.1781   -0.5388    1.9151 C   0  0  0  0  0  0  0  0  0  0  0  0
   -3.7485   -0.0760    0.6426 N   0  0  0  0  0  0  0  0  0  0  0  0
   -1.6633   -0.4157    1.9368 C   0  0  0  0  0  0  0  0  0  0  0  0
   -1.1550    1.0000    2.1865 C   0  0  0  0  0  0  0  0  0  0  0  0
    0.3150    1.0000    2.1865 N   0  0  0  0  0  0  0  0  0  0  0  0
    1.0000    1.0000    1.0000 C   0  0  0  0  0  0  0  0  0  0  0  0
    0.4000    1.0000   -0.0392 O   0  0  0  0  0  0  0  0  0  0  0  0
    2.5200    1.0000    1.0000 C   0  0  0  0  0  0  0  0  0  0  0  0
    3.0100    1.0000   -0.3859 N   0  0  0  0  0  0  0  0  0  0  0  0
    3.7976    2.0275   -0.8340 C   0  0  0  0  0  0  0  0  0  0  0  0
    4.0875    2.9275   -0.0951 O   0  0  0  0  0  0  0  0  0  0  0  0
    4.3043    2.0275   -2.2671 C   0  0  0  0  0  0  0  0  0  0  0  0
    3.0267   -0.2411    1.7165 C   0  0  0  0  0  0  0  0  0  0  0  0
    4.5467   -0.2411    1.7165 C   0  0  0  0  0  0  0  0  0  0  0  0
    5.2311    0.3644    2.7653 C   0  0  0  0  0  0  0  0  0  0  0  0
    6.6219    0.3662    2.7699 C   0  0  0  0  0  0  0  0  0  0  0  0
    7.3116   -0.2391    1.7241 C   0  0  0  0  0  0  0  0  0  0  0  0
    8.6614   -0.2393    1.7244 O   0  0  0  0  0  0  0  0  0  0  0  0
    6.6320   -0.8457    0.6727 C   0  0  0  0  0  0  0  0  0  0  0  0
    5.2412   -0.8449    0.6734 C   0  0  0  0  0  0  0  0  0  0  0  0
   -1.2034   -1.3556    3.0330 C   0  0  0  0  0  0  0  0  0  0  0  0
   -2.2785   -2.4215    3.1108 C   0  0  0  0  0  0  0  0  0  0  0  0
   -3.2315   -2.0518    1.9909 C   0  0  0  0  0  0  0  0  0  0  0  0
  1  2  2  0
  2  3  1  0
  3  4  1  0
  4  5  2  0
  4  6  1  0
  6  7  1  0
  7  2  1  0
  6  8  1  0
  8  9  1  0
  9 10  1  0
 10 11  1  0
 11 12  2  0
 11 13  1  0
 13 14  1  0
 14 15  1  0
 15 16  2  0
 15 17  1  0
 13 18  1  0
 18 19  1  0
 19 20  2  0
 20 21  1  0
 21 22  2  0
 22 23  1  0
 22 24  1  0
 24 25  2  0
 25 19  1  0
  8 26  1  0
 26 27  1  0
 27 28  1  0
 28  6  1  0
M  END
$$$$
s_188690b____14422158____17513482
     RDKit          3D

 25 25  0  0  0  0  0  0  0  0999 V2000
   -2.5741    3.7981   -0.4114 O   0  0  0  0  0  0  0  0  0  0  0  0
   -1.3857    3.6070   -0.2871 C   0  0  0  0  0  0  0  0  0  0  0  0
   -0.5856    4.5625   -0.3838 O   0  0  0  0  0  0  0  0  0  0  0  0
   -0.8659    2.2052   -0.0133 C   0  0  0  0  0  0  0  0  0  0  0  0
    0.2650    2.2731    1.0000 C   0  0  0  0  0  0  0  0  0  0  0  0
    1.0000    1.0000    1.0000 N   0  0  0  0  0  0  0  0  0  0  0  0
    2.3700    1.0000    1.0000 C   0  0  0  0  0  0  0  0  0  0  0  0
    2.9700    2.0392    1.0000 O   0  0  0  0  0  0  0  0  0  0  0  0
    3.1300   -0.3164    1.0000 C   0  0  0  0  0  0  0  0  0  0  0  0
    4.5752   -0.0477    1.0000 N   0  0  0  0  0  0  0  0  0  0  0  0
    5.3571   -0.5058    2.0275 C   0  0  0  0  0  0  0  0  0  0  0  0
    4.8622   -1.1263    2.9275 O   0  0  0  0  0  0  0  0  0  0  0  0
    6.8515   -0.2281    2.0275 C   0  0  0  0  0  0  0  0  0  0  0  0
    2.7628   -1.1134   -0.2411 C   0  0  0  0  0  0  0  0  0  0  0  0
    3.5228   -2.4298   -0.2411 C   0  0  0  0  0  0  0  0  0  0  0  0
    2.9568   -3.5469    0.3644 C   0  0  0  0  0  0  0  0  0  0  0  0
    3.6482   -4.7537    0.3662 C   0  0  0  0  0  0  0  0  0  0  0  0
    4.8987   -4.8280   -0.2391 C   0  0  0  0  0  0  0  0  0  0  0  0
    5.5734   -5.9972   -0.2393 O   0  0  0  0  0  0  0  0  0  0  0  0
    5.4695   -3.7138   -0.8457 C   0  0  0  0  0  0  0  0  0  0  0  0
    4.7735   -2.5097   -0.8449 C   0  0  0  0  0  0  0  0  0  0  0  0
   -0.3095    2.5264    2.3842 C   0  0  0  0  0  0  0  0  0  0  0  0
    0.7617    3.1362    3.2736 C   0  0  0  0  0  0  0  0  0  0  0  0
    1.2320    4.4505    2.6719 C   0  0  0  0  0  0  0  0  0  0  0  0
    0.1871    3.3896    4.6579 C   0  0  0  0  0  0  0  0  0  0  0  0
  1  2  1  0
  2  3  2  0
  2  4  1  0
  4  5  1  0
  5  6  1  0
  6  7  1  0
  7  8  2  0
  7  9  1  0
  9 10  1  0
 10 11  1  0
 11 12  2  0
 11 13  1  0
  9 14  1  0
 14 15  1  0
 15 16  2  0
 16 17  1  0
 17 18  2  0
 18 19  1  0
 18 20  1  0
 20 21  2  0
 21 15  1  0
  5 22  1  0
 22 23  1  0
 23 24  1  0
 23 25  1  0
M  CHG  1   1  -1
M  END
$$$$
s_22____16911156____13259654
     RDKit          3D

 26 28  0  0  0  0  0  0  0  0999 V2000
    0.1004   -4.7992    4.5837 Br  0  0  0  0  0  0  0  0  0  0  0  0
    0.1499   -2.9796    3.8571 C   0  0  0  0  0  0  0  0  0  0  0  0
   -0.8631   -2.5496    3.0062 C   0  0  0  0  0  0  0  0  0  0  0  0
   -0.8226   -1.2571    2.4937 C   0  0  0  0  0  0  0  0  0  0  0  0
    0.2272   -0.4112    2.8362 C   0  0  0  0  0  0  0  0  0  0  0  0
    1.2371   -0.8477    3.6879 C   0  0  0  0  0  0  0  0  0  0  0  0
    1.2032   -2.1391    4.2041 C   0  0  0  0  0  0  0  0  0  0  0  0
    0.2650    1.0000    2.2731 C   0  0  0  0  0  0  0  0  0  0  0  0
    1.0000    1.0000    1.0000 N   0  0  0  0  0  0  0  0  0  0  0  0
    0.3150    1.0000   -0.1865 C   0  0  0  0  0  0  0  0  0  0  0  0
   -0.8307    1.3554   -0.2178 O   0  0  0  0  0  0  0  0  0  0  0  0
    1.0035    0.5516   -1.4580 C   0  0  0  0  0  0  0  0  0  0  0  0
    1.2818   -0.8894   -1.4964 N   0  0  0  0  0  0  0  0  0  0  0  0
    2.2400   -1.1955   -2.5717 C   0  0  0  0  0  0  0  0  0  0  0  0
    1.7579   -0.4524   -3.8008 C   0  0  0  0  0  0  0  0  0  0  0  0
    0.3225   -0.1488   -3.6646 N   0  0  0  0  0  0  0  0  0  0  0  0
    0.1598    0.9176   -2.6707 C   0  0  0  0  0  0  0  0  0  0  0  0
   -0.3890   -1.3568   -3.2168 C   0  0  0  0  0  0  0  0  0  0  0  0
    0.1277   -1.7394   -1.8412 C   0  0  0  0  0  0  0  0  0  0  0  0
    2.0552   -1.2582   -5.0554 C   0  0  0  0  0  0  0  0  0  0  0  0
    2.4700    1.0000    1.0000 C   0  0  0  0  0  0  0  0  0  0  0  0
    2.9767    2.4246    0.8440 C   0  0  0  0  0  0  0  0  0  0  0  0
    2.1969    3.3312    0.7447 O   0  0  0  0  0  0  0  0  0  0  0  0
    4.3236    2.6734    0.8167 N   0  0  0  0  0  0  0  0  0  0  0  0
    4.8136    4.0511    0.6659 C   0  0  0  0  0  0  0  0  0  0  0  0
    5.2789    1.5627    0.9384 C   0  0  0  0  0  0  0  0  0  0  0  0
  1  2  1  0
  2  3  2  0
  3  4  1  0
  4  5  2  0
  5  6  1  0
  6  7  2  0
  7  2  1  0
  5  8  1  0
  8  9  1  0
  9 10  1  0
 10 11  2  0
 10 12  1  0
 12 13  1  0
 13 14  1  0
 14 15  1  0
 15 16  1  0
 16 17  1  0
 17 12  1  0
 16 18  1  0
 18 19  1  0
 19 13  1  0
 15 20  1  0
  9 21  1  0
 21 22  1  0
 22 23  2  0
 22 24  1  0
 24 25  1  0
 24 26  1  0
M  CHG  2  13   1  16   1
M  END
$$$$
s_2708____5730620____9286230
     RDKit          3D

 22 23  0  0  0  0  0  0  0  0999 V2000
    5.2353   -1.2684   -4.4628 Br  0  0  0  0  0  0  0  0  0  0  0  0
    4.2275   -1.1704   -2.7856 C   0  0  0  0  0  0  0  0  0  0  0  0
    4.7090   -0.3243   -1.3939 S   0  0  0  0  0  0  0  0  0  0  0  0
    3.3584   -0.7120   -0.4334 C   0  0  0  0  0  0  0  0  0  0  0  0
    2.5488   -1.4894   -1.2016 C   0  0  0  0  0  0  0  0  0  0  0  0
    3.0281   -1.7509   -2.5123 C   0  0  0  0  0  0  0  0  0  0  0  0
    3.1050   -0.2731    1.0000 C   0  0  0  0  0  0  0  0  0  0  0  0
    2.3700    1.0000    1.0000 N   0  0  0  0  0  0  0  0  0  0  0  0
    1.0000    1.0000    1.0000 C   0  0  0  0  0  0  0  0  0  0  0  0
    0.4000   -0.0392    1.0000 O   0  0  0  0  0  0  0  0  0  0  0  0
    0.3150    2.1865    1.0000 N   0  0  0  0  0  0  0  0  0  0  0  0
   -1.1575    2.1865    1.0000 C   0  0  0  0  0  0  0  0  0  0  0  0
   -1.6732    2.9014    2.2383 C   0  0  0  0  0  0  0  0  0  0  0  0
   -3.1931    2.9185    2.2184 C   0  0  0  0  0  0  0  0  0  0  0  0
   -3.6882    3.5758    0.9989 N   0  0  0  0  0  0  0  0  0  0  0  0
   -3.1940    2.9166   -0.2190 C   0  0  0  0  0  0  0  0  0  0  0  0
   -1.6738    2.9029   -0.2376 C   0  0  0  0  0  0  0  0  0  0  0  0
   -5.1578    3.5632    0.9541 C   0  0  0  0  0  0  0  0  0  0  0  0
   -3.6740    3.6408    3.4667 C   0  0  0  0  0  0  0  0  0  0  0  0
    3.1050    2.2731    1.0000 C   0  0  0  0  0  0  0  0  0  0  0  0
    3.3583    2.7118    2.4331 C   0  0  0  0  0  0  0  0  0  0  0  0
    4.0683    3.9416    2.4331 O   0  0  0  0  0  0  0  0  0  0  0  0
  1  2  1  0
  2  3  1  0
  3  4  1  0
  4  5  2  0
  5  6  1  0
  2  6  2  0
  4  7  1  0
  7  8  1  0
  8  9  1  0
  9 10  2  0
  9 11  1  0
 11 12  1  0
 12 13  1  0
 13 14  1  0
 14 15  1  0
 15 16  1  0
 16 17  1  0
 17 12  1  0
 15 18  1  0
 14 19  1  0
  8 20  1  0
 20 21  1  0
 21 22  1  0
M  CHG  1  15   1
M  END
$$$$
s_22____392562____17513450
     RDKit          3D

 25 27  0  0  0  0  0  0  0  0999 V2000
    0.4000    1.0000   -0.0392 O   0  0  0  0  0  0  0  0  0  0  0  0
    1.0000    1.0000    1.0000 C   0  0  0  0  0  0  0  0  0  0  0  0
    0.3150    1.0000    2.1865 N   0  0  0  0  0  0  0  0  0  0  0  0
   -1.1550    1.0000    2.1865 C   0  0  0  0  0  0  0  0  0  0  0  0
   -1.6610   -0.2395    2.9021 C   0  0  0  0  0  0  0  0  0  0  0  0
   -3.1767   -0.3473    2.9643 C   0  0  0  0  0  0  0  0  0  0  0  0
   -3.4180   -1.8175    3.1639 C   0  0  0  0  0  0  0  0  0  0  0  0
   -2.6421   -2.1871    1.9337 C   0  0  0  0  0  0  0  0  0  0  0  0
   -1.2957   -1.5463    2.2243 C   0  0  0  0  0  0  0  0  0  0  0  0
   -3.4261   -1.4286    0.8859 C   0  0  0  0  0  0  0  0  0  0  0  0
   -3.7497   -0.1247    1.5794 C   0  0  0  0  0  0  0  0  0  0  0  0
   -1.6617    2.2411    2.9030 C   0  0  0  0  0  0  0  0  0  0  0  0
    2.5200    1.0000    1.0000 C   0  0  0  0  0  0  0  0  0  0  0  0
    3.0100    1.0000   -0.3859 N   0  0  0  0  0  0  0  0  0  0  0  0
    3.7976    2.0275   -0.8340 C   0  0  0  0  0  0  0  0  0  0  0  0
    4.0875    2.9275   -0.0951 O   0  0  0  0  0  0  0  0  0  0  0  0
    4.3043    2.0275   -2.2671 C   0  0  0  0  0  0  0  0  0  0  0  0
    3.0267   -0.2411    1.7165 C   0  0  0  0  0  0  0  0  0  0  0  0
    4.5467   -0.2411    1.7165 C   0  0  0  0  0  0  0  0  0  0  0  0
    5.2311    0.3644    2.7653 C   0  0  0  0  0  0  0  0  0  0  0  0
    6.6219    0.3662    2.7699 C   0  0  0  0  0  0  0  0  0  0  0  0
    7.3116   -0.2391    1.7241 C   0  0  0  0  0  0  0  0  0  0  0  0
    8.6614   -0.2393    1.7244 O   0  0  0  0  0  0  0  0  0  0  0  0
    6.6320   -0.8457    0.6727 C   0  0  0  0  0  0  0  0  0  0  0  0
    5.2412   -0.8449    0.6734 C   0  0  0  0  0  0  0  0  0  0  0  0
  1  2  2  0
  2  3  1  0
  3  4  1  0
  4  5  1  0
  5  6  1  0
  6  7  1  0
  7  8  1  0
  8  9  1  0
  9  5  1  0
  8 10  1  0
 10 11  1  0
 11  6  1  0
  4 12  1  0
  2 13  1  0
 13 14  1  0
 14 15  1  0
 15 16  2  0
 15 17  1  0
 13 18  1  0
 18 19  1  0
 19 20  2  0
 20 21  1  0
 21 22  2  0
 22 23  1  0
 22 24  1  0
 24 25  2  0
 25 19  1  0
M  END
$$$$
s_272212____13253664____11403114
     RDKit          3D

 23 25  0  0  0  0  0  0  0  0999 V2000
    5.3728    2.3693    2.4797 O   0  0  0  0  0  0  0  0  0  0  0  0
    4.1549    2.2974    2.4918 C   0  0  0  0  0  0  0  0  0  0  0  0
    3.2885    3.3892    2.5106 N   0  0  0  0  0  0  0  0  0  0  0  0
    1.9694    2.9418    2.5261 C   0  0  0  0  0  0  0  0  0  0  0  0
    0.9721    3.6450    2.5428 O   0  0  0  0  0  0  0  0  0  0  0  0
    1.9913    1.4286    2.5093 C   0  0  0  0  0  0  0  0  0  0  0  0
    3.4184    1.1115    2.4910 N   0  0  0  0  0  0  0  0  0  0  0  0
    3.9846   -0.2481    2.4807 C   0  0  0  0  0  0  0  0  0  0  0  0
    4.1889   -0.7228    3.9106 C   0  0  0  0  0  0  0  0  0  0  0  0
    3.1699   -1.4033    4.5698 C   0  0  0  0  0  0  0  0  0  0  0  0
    1.9933   -1.6499    3.9548 O   0  0  0  0  0  0  0  0  0  0  0  0
    3.3568   -1.8376    5.8784 C   0  0  0  0  0  0  0  0  0  0  0  0
    4.5630   -1.5918    6.5273 C   0  0  0  0  0  0  0  0  0  0  0  0
    5.5818   -0.9119    5.8674 C   0  0  0  0  0  0  0  0  0  0  0  0
    5.3948   -0.4780    4.5590 C   0  0  0  0  0  0  0  0  0  0  0  0
    3.6990    4.8034    2.5210 C   0  0  0  0  0  0  0  0  0  0  0  0
    3.1449    5.5101    1.2947 C   0  0  0  0  0  0  0  0  0  0  0  0
    3.5523    6.9744    1.3256 C   0  0  0  0  0  0  0  0  0  0  0  0
    3.0702    7.6207    2.5560 N   0  0  0  0  0  0  0  0  0  0  0  0
    3.5767    6.9504    3.7627 C   0  0  0  0  0  0  0  0  0  0  0  0
    3.1662    5.4864    3.7704 C   0  0  0  0  0  0  0  0  0  0  0  0
    3.4924    9.0281    2.6111 C   0  0  0  0  0  0  0  0  0  0  0  0
    2.9813    7.6499    0.0891 C   0  0  0  0  0  0  0  0  0  0  0  0
  1  2  2  0
  2  3  1  0
  3  4  1  0
  4  5  2  0
  4  6  1  0
  6  7  1  0
  7  2  1  0
  7  8  1  0
  8  9  1  0
  9 10  2  0
 10 11  1  0
 10 12  1  0
 12 13  2  0
 13 14  1  0
 14 15  2  0
 15  9  1  0
  3 16  1  0
 16 17  1  0
 17 18  1  0
 18 19  1  0
 19 20  1  0
 20 21  1  0
 21 16  1  0
 19 22  1  0
 18 23  1  0
M  CHG  1  19   1
M  END
$$$$
s_272212____13250008____12526102
     RDKit          3D

 27 29  0  0  0  0  0  0  0  0999 V2000
    7.2244    6.5022    4.8588 Cl  0  0  0  0  0  0  0  0  0  0  0  0
    7.3760    4.8036    5.3684 C   0  0  0  0  0  0  0  0  0  0  0  0
    7.0508    4.4405    6.6705 C   0  0  0  0  0  0  0  0  0  0  0  0
    7.1685    3.1140    7.0732 C   0  0  0  0  0  0  0  0  0  0  0  0
    7.6127    2.1642    6.1594 C   0  0  0  0  0  0  0  0  0  0  0  0
    7.9383    2.5269    4.8572 C   0  0  0  0  0  0  0  0  0  0  0  0
    7.8206    3.8537    4.4545 C   0  0  0  0  0  0  0  0  0  0  0  0
    7.7449    0.7134    6.5909 C   0  0  0  0  0  0  0  0  0  0  0  0
    6.4338   -0.0152    6.3299 C   0  0  0  0  0  0  0  0  0  0  0  0
    5.4042    0.6664    7.1141 N   0  0  0  0  0  0  0  0  0  0  0  0
    4.5138    1.2870    6.2378 C   0  0  0  0  0  0  0  0  0  0  0  0
    3.5507    1.9533    6.5762 O   0  0  0  0  0  0  0  0  0  0  0  0
    4.8866    1.0330    4.9186 N   0  0  0  0  0  0  0  0  0  0  0  0
    6.0293    0.2371    4.8959 C   0  0  0  0  0  0  0  0  0  0  0  0
    6.5915   -0.1888    3.9010 O   0  0  0  0  0  0  0  0  0  0  0  0
    4.1731    1.5210    3.7307 C   0  0  0  0  0  0  0  0  0  0  0  0
    4.1423    3.0416    3.7326 C   0  0  0  0  0  0  0  0  0  0  0  0
    3.3836    3.5389    2.5124 C   0  0  0  0  0  0  0  0  0  0  0  0
    2.0132    3.0059    2.4862 N   0  0  0  0  0  0  0  0  0  0  0  0
    1.2711    3.5130    1.3202 C   0  0  0  0  0  0  0  0  0  0  0  0
   -0.1372    2.9412    1.3280 C   0  0  0  0  0  0  0  0  0  0  0  0
   -0.8781    3.4475    0.1637 N   0  0  0  0  0  0  0  0  0  0  0  0
   -2.2401    2.8945    0.1714 C   0  0  0  0  0  0  0  0  0  0  0  0
   -0.9446    4.9147    0.2254 C   0  0  0  0  0  0  0  0  0  0  0  0
    2.0020    1.5354    2.5080 C   0  0  0  0  0  0  0  0  0  0  0  0
    2.7414    1.0098    3.7282 C   0  0  0  0  0  0  0  0  0  0  0  0
    6.5697   -1.4909    6.6593 C   0  0  0  0  0  0  0  0  0  0  0  0
  1  2  1  0
  2  3  2  0
  3  4  1  0
  4  5  2  0
  5  6  1  0
  6  7  2  0
  7  2  1  0
  5  8  1  0
  8  9  1  0
  9 10  1  0
 10 11  1  0
 11 12  2  0
 11 13  1  0
 13 14  1  0
 14  9  1  0
 14 15  2  0
 13 16  1  0
 16 17  1  0
 17 18  1  0
 18 19  1  0
 19 20  1  0
 20 21  1  0
 21 22  1  0
 22 23  1  0
 22 24  1  0
 19 25  1  0
 25 26  1  0
 26 16  1  0
  9 27  1  0
M  CHG  2  19   1  22   1
M  END
$$$$
s_527a____10150806____5637264
     RDKit          3D

 26 27  0  0  0  0  0  0  0  0999 V2000
    1.9854    1.7822   -2.9583 F   0  0  0  0  0  0  0  0  0  0  0  0
    2.3246    0.5410   -2.6221 C   0  0  0  0  0  0  0  0  0  0  0  0
    2.8458    0.2913   -1.3568 C   0  0  0  0  0  0  0  0  0  0  0  0
    3.2071   -0.9989   -0.9832 C   0  0  0  0  0  0  0  0  0  0  0  0
    3.0410   -2.0406   -1.8908 C   0  0  0  0  0  0  0  0  0  0  0  0
    2.5194   -1.7850   -3.1545 C   0  0  0  0  0  0  0  0  0  0  0  0
    2.3616   -2.7813   -4.0203 F   0  0  0  0  0  0  0  0  0  0  0  0
    2.1573   -0.4969   -3.5327 C   0  0  0  0  0  0  0  0  0  0  0  0
    3.0267    1.4309   -0.3667 C   0  0  0  0  0  0  0  0  0  0  0  0
    4.4521    1.7778   -0.2739 N   0  0  0  0  0  0  0  0  0  0  0  0
    4.8720    3.0415   -0.5957 C   0  0  0  0  0  0  0  0  0  0  0  0
    4.0761    3.8653   -0.9534 O   0  0  0  0  0  0  0  0  0  0  0  0
    6.3460    3.4001   -0.4997 C   0  0  0  0  0  0  0  0  0  0  0  0
    2.5200    1.0000    1.0000 C   0  0  0  0  0  0  0  0  0  0  0  0
    1.0000    1.0000    1.0000 C   0  0  0  0  0  0  0  0  0  0  0  0
    0.4000    1.0000   -0.0392 O   0  0  0  0  0  0  0  0  0  0  0  0
    0.3150    1.0000    2.1865 N   0  0  0  0  0  0  0  0  0  0  0  0
   -1.1550    1.0000    2.1865 C   0  0  0  0  0  0  0  0  0  0  0  0
   -1.6617   -0.4113    1.9376 C   0  0  0  0  0  0  0  0  0  0  0  0
   -1.1858   -1.3703    3.0028 C   0  0  0  0  0  0  0  0  0  0  0  0
   -2.2199   -2.4076    2.9720 N   0  0  0  0  0  0  0  0  0  0  0  0
   -1.9967   -3.7765    3.1765 C   0  0  0  0  0  0  0  0  0  0  0  0
   -0.8873   -4.1770    3.3975 O   0  0  0  0  0  0  0  0  0  0  0  0
   -3.0451   -4.6568    3.1241 N   0  0  0  0  0  0  0  0  0  0  0  0
   -3.5162   -1.7851    2.6826 C   0  0  0  0  0  0  0  0  0  0  0  0
   -3.1725   -0.4568    2.0268 C   0  0  0  0  0  0  0  0  0  0  0  0
  1  2  1  0
  2  3  2  0
  3  4  1  0
  4  5  2  0
  5  6  1  0
  6  7  1  0
  6  8  2  0
  8  2  1  0
  3  9  1  0
  9 10  1  0
 10 11  1  0
 11 12  2  0
 11 13  1  0
  9 14  1  0
 14 15  1  0
 15 16  2  0
 15 17  1  0
 17 18  1  0
 18 19  1  0
 19 20  1  0
 20 21  1  0
 21 22  1  0
 22 23  2  0
 22 24  1  0
 21 25  1  0
 25 26  1  0
 26 19  1  0
M  END
$$$$
s_22____8333288____17513450
     RDKit          3D

 26 27  0  0  0  0  0  0  0  0999 V2000
    2.9700    2.0392    1.0000 O   0  0  0  0  0  0  0  0  0  0  0  0
    2.3700    1.0000    1.0000 C   0  0  0  0  0  0  0  0  0  0  0  0
    1.0000    1.0000    1.0000 N   0  0  0  0  0  0  0  0  0  0  0  0
    0.2628    2.2769    1.0000 C   0  0  0  0  0  0  0  0  0  0  0  0
   -0.6190    2.3785    2.2347 C   0  0  0  0  0  0  0  0  0  0  0  0
   -1.4001    3.6816    2.1739 C   0  0  0  0  0  0  0  0  0  0  0  0
   -2.1999    3.7517    0.9997 O   0  0  0  0  0  0  0  0  0  0  0  0
   -1.4235    3.6628   -0.1873 C   0  0  0  0  0  0  0  0  0  0  0  0
   -0.6296    2.3656   -0.2284 C   0  0  0  0  0  0  0  0  0  0  0  0
   -2.2437    3.7757    3.4352 C   0  0  0  0  0  0  0  0  0  0  0  0
   -1.3411    3.6958    4.6556 C   0  0  0  0  0  0  0  0  0  0  0  0
   -0.3453    4.8438    4.6253 C   0  0  0  0  0  0  0  0  0  0  0  0
   -2.1846    3.7899    5.9167 C   0  0  0  0  0  0  0  0  0  0  0  0
    3.1300   -0.3164    1.0000 C   0  0  0  0  0  0  0  0  0  0  0  0
    4.5752   -0.0477    1.0000 N   0  0  0  0  0  0  0  0  0  0  0  0
    5.3571   -0.5058    2.0275 C   0  0  0  0  0  0  0  0  0  0  0  0
    4.8622   -1.1263    2.9275 O   0  0  0  0  0  0  0  0  0  0  0  0
    6.8515   -0.2281    2.0275 C   0  0  0  0  0  0  0  0  0  0  0  0
    2.7628   -1.1134   -0.2411 C   0  0  0  0  0  0  0  0  0  0  0  0
    3.5228   -2.4298   -0.2411 C   0  0  0  0  0  0  0  0  0  0  0  0
    2.9568   -3.5469    0.3644 C   0  0  0  0  0  0  0  0  0  0  0  0
    3.6482   -4.7537    0.3662 C   0  0  0  0  0  0  0  0  0  0  0  0
    4.8987   -4.8280   -0.2391 C   0  0  0  0  0  0  0  0  0  0  0  0
    5.5734   -5.9972   -0.2393 O   0  0  0  0  0  0  0  0  0  0  0  0
    5.4695   -3.7138   -0.8457 C   0  0  0  0  0  0  0  0  0  0  0  0
    4.7735   -2.5097   -0.8449 C   0  0  0  0  0  0  0  0  0  0  0  0
  1  2  2  0
  2  3  1  0
  3  4  1  0
  4  5  1  0
  5  6  1  0
  6  7  1  0
  7  8  1  0
  8  9  1  0
  9  4  1  0
  6 10  1  0
 10 11  1  0
 11 12  1  0
 11 13  1  0
  2 14  1  0
 14 15  1  0
 15 16  1  0
 16 17  2  0
 16 18  1  0
 14 19  1  0
 19 20  1  0
 20 21  2  0
 21 22  1  0
 22 23  2  0
 23 24  1  0
 23 25  1  0
 25 26  2  0
 26 20  1  0
M  END
$$$$
s_22____12102952____17513450
     RDKit          3D

 28 29  0  0  0  0  0  0  0  0999 V2000
    0.0421   -0.0100    1.8104 Si  0  0  0  0  0  4  0  0  0  0  0  0
    0.8417    0.9705    3.0483 O   0  0  0  0  0  0  0  0  0  0  0  0
    2.0340    1.5237    2.5158 C   0  0  0  0  0  0  0  0  0  0  0  0
    3.2190    1.2313    3.4163 C   0  0  0  0  0  0  0  0  0  0  0  0
    4.1949    2.2543    3.0515 N   0  0  0  0  0  0  0  0  0  0  0  0
    5.5820    2.1603    3.2203 C   0  0  0  0  0  0  0  0  0  0  0  0
    6.0673    1.1495    3.6478 O   0  0  0  0  0  0  0  0  0  0  0  0
    6.4728    3.3387    2.8620 C   0  0  0  0  0  0  0  0  0  0  0  0
    7.8240    2.8533    2.5463 N   0  0  0  0  0  0  0  0  0  0  0  0
    8.3634    3.0852    1.3085 C   0  0  0  0  0  0  0  0  0  0  0  0
    7.7328    3.6845    0.4819 O   0  0  0  0  0  0  0  0  0  0  0  0
    9.7605    2.5833    0.9821 C   0  0  0  0  0  0  0  0  0  0  0  0
    6.5412    4.2983    4.0387 C   0  0  0  0  0  0  0  0  0  0  0  0
    7.1078    5.6301    3.5742 C   0  0  0  0  0  0  0  0  0  0  0  0
    6.2437    6.6181    3.1134 C   0  0  0  0  0  0  0  0  0  0  0  0
    6.7576    7.8385    2.6880 C   0  0  0  0  0  0  0  0  0  0  0  0
    8.1312    8.0558    2.7294 C   0  0  0  0  0  0  0  0  0  0  0  0
    8.6341    9.2386    2.3172 O   0  0  0  0  0  0  0  0  0  0  0  0
    8.9997    7.0710    3.1890 C   0  0  0  0  0  0  0  0  0  0  0  0
    8.4804    5.8526    3.6136 C   0  0  0  0  0  0  0  0  0  0  0  0
    3.4945    3.3995    2.4701 C   0  0  0  0  0  0  0  0  0  0  0  0
    2.0243    3.0400    2.5399 C   0  0  0  0  0  0  0  0  0  0  0  0
   -1.5301   -0.7394    2.5125 C   0  0  0  0  0  0  0  0  0  0  0  0
   -1.1929   -1.6122    3.7104 C   0  0  0  0  0  0  0  0  0  0  0  0
   -2.4586    0.3823    2.9482 C   0  0  0  0  0  0  0  0  0  0  0  0
   -2.2167   -1.5814    1.4495 C   0  0  0  0  0  0  0  0  0  0  0  0
   -0.3728    1.0637    0.3366 C   0  0  0  0  0  0  0  0  0  0  0  0
    1.1845   -1.3900    1.2744 C   0  0  0  0  0  0  0  0  0  0  0  0
  1  2  1  0
  2  3  1  0
  3  4  1  0
  4  5  1  0
  5  6  1  0
  6  7  2  0
  6  8  1  0
  8  9  1  0
  9 10  1  0
 10 11  2  0
 10 12  1  0
  8 13  1  0
 13 14  1  0
 14 15  2  0
 15 16  1  0
 16 17  2  0
 17 18  1  0
 17 19  1  0
 19 20  2  0
 20 14  1  0
  5 21  1  0
 21 22  1  0
 22  3  1  0
  1 23  1  0
 23 24  1  0
 23 25  1  0
 23 26  1  0
  1 27  1  0
  1 28  1  0
M  END
$$$$
s_22____11765530____17513450
     RDKit          3D

 27 29  0  0  0  0  0  0  0  0999 V2000
    0.4711    2.1500   -0.9930 O   0  0  0  0  0  0  0  0  0  0  0  0
    0.1224    1.8776    0.1224 C   0  0  0  0  0  0  0  0  0  0  0  0
   -1.0990    2.3706    0.6180 N   0  0  0  0  0  0  0  0  0  0  0  0
   -1.7902    1.7609    1.7639 C   0  0  0  0  0  0  0  0  0  0  0  0
   -3.2931    1.9171    1.5839 C   0  0  0  0  0  0  0  0  0  0  0  0
   -3.5855    3.3138    1.6720 O   0  0  0  0  0  0  0  0  0  0  0  0
   -2.6225    4.1880    1.0895 C   0  0  0  0  0  0  0  0  0  0  0  0
   -1.7691    3.5344    0.0165 C   0  0  0  0  0  0  0  0  0  0  0  0
   -3.2774    5.4614    0.5762 C   0  0  0  0  0  0  0  0  0  0  0  0
   -3.7094    1.2869    0.2582 C   0  0  0  0  0  0  0  0  0  0  0  0
   -3.2755   -0.1645    0.1207 C   0  0  0  0  0  0  0  0  0  0  0  0
   -3.9686   -0.9483    1.2225 C   0  0  0  0  0  0  0  0  0  0  0  0
   -3.6877   -0.3721    2.6014 C   0  0  0  0  0  0  0  0  0  0  0  0
   -4.0272    1.1126    2.6479 C   0  0  0  0  0  0  0  0  0  0  0  0
    1.0000    1.0000    1.0000 C   0  0  0  0  0  0  0  0  0  0  0  0
    1.8487    0.1513    0.1513 N   0  0  0  0  0  0  0  0  0  0  0  0
    1.7598   -1.2129    0.2402 C   0  0  0  0  0  0  0  0  0  0  0  0
    0.9891   -1.7150    1.0109 O   0  0  0  0  0  0  0  0  0  0  0  0
    2.6374   -2.0905   -0.6374 C   0  0  0  0  0  0  0  0  0  0  0  0
    1.8776    1.8776    1.8776 C   0  0  0  0  0  0  0  0  0  0  0  0
    2.8824    1.0100    2.6179 C   0  0  0  0  0  0  0  0  0  0  0  0
    2.5504    0.4903    3.8647 C   0  0  0  0  0  0  0  0  0  0  0  0
    3.4664   -0.3047    4.5455 C   0  0  0  0  0  0  0  0  0  0  0  0
    4.7046   -0.5705    3.9693 C   0  0  0  0  0  0  0  0  0  0  0  0
    5.5967   -1.3413    4.6266 O   0  0  0  0  0  0  0  0  0  0  0  0
    5.0418   -0.0530    2.7228 C   0  0  0  0  0  0  0  0  0  0  0  0
    4.1218    0.7410    2.0463 C   0  0  0  0  0  0  0  0  0  0  0  0
  1  2  2  0
  2  3  1  0
  3  4  1  0
  4  5  1  0
  5  6  1  0
  6  7  1  0
  7  8  1  0
  8  3  1  0
  7  9  1  0
  5 10  1  0
 10 11  1  0
 11 12  1  0
 12 13  1  0
 13 14  1  0
 14  5  1  0
  2 15  1  0
 15 16  1  0
 16 17  1  0
 17 18  2  0
 17 19  1  0
 15 20  1  0
 20 21  1  0
 21 22  2  0
 22 23  1  0
 23 24  2  0
 24 25  1  0
 24 26  1  0
 26 27  2  0
 27 21  1  0
M  END
$$$$
s_22____7634772____17513450
     RDKit          3D

 26 26  0  0  0  0  0  0  0  0999 V2000
    0.1081    3.0659    2.5193 O   0  0  0  0  0  0  0  0  0  0  0  0
    1.2902    2.8669    2.5755 C   0  0  0  0  0  0  0  0  0  0  0  0
    1.8487    1.8487    1.8487 N   0  0  0  0  0  0  0  0  0  0  0  0
    1.0000    1.0000    1.0000 C   0  0  0  0  0  0  0  0  0  0  0  0
    0.7075    1.7208   -0.3059 C   0  0  0  0  0  0  0  0  0  0  0  0
   -0.1701    0.8432   -1.1834 C   0  0  0  0  0  0  0  0  0  0  0  0
   -0.4434    1.5166   -2.4034 O   0  0  0  0  0  0  0  0  0  0  0  0
    0.7766    1.7899   -3.0768 C   0  0  0  0  0  0  0  0  0  0  0  0
   -1.4760    0.5507   -0.4626 C   0  0  0  0  0  0  0  0  0  0  0  0
   -2.1968    1.8566   -0.1701 C   0  0  0  0  0  0  0  0  0  0  0  0
   -3.5026    1.5640    0.5507 C   0  0  0  0  0  0  0  0  0  0  0  0
   -2.3535   -0.3269   -1.3402 C   0  0  0  0  0  0  0  0  0  0  0  0
   -1.6327   -1.6327   -1.6327 C   0  0  0  0  0  0  0  0  0  0  0  0
    2.1677    3.7445    3.4531 C   0  0  0  0  0  0  0  0  0  0  0  0
    1.3362    4.7547    4.1230 N   0  0  0  0  0  0  0  0  0  0  0  0
    1.2850    4.8020    5.4912 C   0  0  0  0  0  0  0  0  0  0  0  0
    1.9189    4.0186    6.1428 O   0  0  0  0  0  0  0  0  0  0  0  0
    0.4252    5.8466    6.1840 C   0  0  0  0  0  0  0  0  0  0  0  0
    3.2124    4.4372    2.5933 C   0  0  0  0  0  0  0  0  0  0  0  0
    4.0900    5.3148    3.4709 C   0  0  0  0  0  0  0  0  0  0  0  0
    5.2426    4.7808    4.0377 C   0  0  0  0  0  0  0  0  0  0  0  0
    6.0490    5.5802    4.8408 C   0  0  0  0  0  0  0  0  0  0  0  0
    5.6921    6.9059    5.0666 C   0  0  0  0  0  0  0  0  0  0  0  0
    6.4717    7.6852    5.8457 O   0  0  0  0  0  0  0  0  0  0  0  0
    4.5403    7.4447    4.5024 C   0  0  0  0  0  0  0  0  0  0  0  0
    3.7378    6.6409    3.6999 C   0  0  0  0  0  0  0  0  0  0  0  0
  1  2  2  0
  2  3  1  0
  3  4  1  0
  4  5  1  0
  5  6  1  0
  6  7  1  0
  7  8  1  0
  6  9  1  0
  9 10  1  0
 10 11  1  0
  9 12  1  0
 12 13  1  0
  2 14  1  0
 14 15  1  0
 15 16  1  0
 16 17  2  0
 16 18  1  0
 14 19  1  0
 19 20  1  0
 20 21  2  0
 21 22  1  0
 22 23  2  0
 23 24  1  0
 23 25  1  0
 25 26  2  0
 26 20  1  0
M  END
$$$$
s_22____8846486____107332
     RDKit          3D

 26 27  0  0  0  0  0  0  0  0999 V2000
    2.2958   -3.1092   -4.3208 Cl  0  0  0  0  0  0  0  0  0  0  0  0
    2.5117   -1.7775   -3.1598 C   0  0  0  0  0  0  0  0  0  0  0  0
    3.2657   -1.9786   -2.0090 C   0  0  0  0  0  0  0  0  0  0  0  0
    3.4364   -0.9406   -1.0986 C   0  0  0  0  0  0  0  0  0  0  0  0
    2.8459    0.2921   -1.3561 C   0  0  0  0  0  0  0  0  0  0  0  0
    2.0917    0.4935   -2.5066 C   0  0  0  0  0  0  0  0  0  0  0  0
    1.9209   -0.5447   -3.4172 C   0  0  0  0  0  0  0  0  0  0  0  0
    3.0267    1.4309   -0.3667 C   0  0  0  0  0  0  0  0  0  0  0  0
    4.4521    1.7778   -0.2739 N   0  0  0  0  0  0  0  0  0  0  0  0
    4.8720    3.0415   -0.5957 C   0  0  0  0  0  0  0  0  0  0  0  0
    4.0761    3.8653   -0.9534 O   0  0  0  0  0  0  0  0  0  0  0  0
    6.3460    3.4001   -0.4997 C   0  0  0  0  0  0  0  0  0  0  0  0
    2.5200    1.0000    1.0000 C   0  0  0  0  0  0  0  0  0  0  0  0
    1.0000    1.0000    1.0000 C   0  0  0  0  0  0  0  0  0  0  0  0
    0.4000    1.0000   -0.0392 O   0  0  0  0  0  0  0  0  0  0  0  0
    0.3150    1.0000    2.1865 N   0  0  0  0  0  0  0  0  0  0  0  0
   -1.1543    1.0000    2.1865 C   0  0  0  0  0  0  0  0  0  0  0  0
   -1.7379    2.2106    2.8854 C   0  0  0  0  0  0  0  0  0  0  0  0
   -2.7787    1.2438    3.4144 C   0  0  0  0  0  0  0  0  0  0  0  0
   -3.1443    1.5086    4.7607 O   0  0  0  0  0  0  0  0  0  0  0  0
   -4.1184    0.5647    5.1810 C   0  0  0  0  0  0  0  0  0  0  0  0
   -4.5098    0.8481    6.6221 C   0  0  0  0  0  0  0  0  0  0  0  0
   -5.3463    0.6736    4.2917 C   0  0  0  0  0  0  0  0  0  0  0  0
   -1.7280    0.1632    3.3052 C   0  0  0  0  0  0  0  0  0  0  0  0
   -2.3123    3.2416    1.9276 C   0  0  0  0  0  0  0  0  0  0  0  0
   -0.8346    2.8343    3.9389 C   0  0  0  0  0  0  0  0  0  0  0  0
  1  2  1  0
  2  3  2  0
  3  4  1  0
  4  5  2  0
  5  6  1  0
  6  7  2  0
  7  2  1  0
  5  8  1  0
  8  9  1  0
  9 10  1  0
 10 11  2  0
 10 12  1  0
  8 13  1  0
 13 14  1  0
 14 15  2  0
 14 16  1  0
 16 17  1  0
 17 18  1  0
 18 19  1  0
 19 20  1  0
 20 21  1  0
 21 22  1  0
 21 23  1  0
 19 24  1  0
 24 17  1  0
 18 25  1  0
 18 26  1  0
M  END
$$$$
s_22____13458814____17513450
     RDKit          3D

 28 30  0  0  0  0  0  0  0  0999 V2000
    3.0596    1.6786    1.9338 O   0  0  0  0  0  0  0  0  0  0  0  0
    1.8776    1.8776    1.8776 C   0  0  0  0  0  0  0  0  0  0  0  0
    1.3190    2.8957    2.6044 N   0  0  0  0  0  0  0  0  0  0  0  0
    2.1677    3.7445    3.4531 C   0  0  0  0  0  0  0  0  0  0  0  0
    2.8597    4.7880    2.5942 C   0  0  0  0  0  0  0  0  0  0  0  0
    1.9424    5.6289    1.9157 O   0  0  0  0  0  0  0  0  0  0  0  0
    2.4132    6.9627    1.8222 C   0  0  0  0  0  0  0  0  0  0  0  0
    3.7987    6.9099    2.4312 C   0  0  0  0  0  0  0  0  0  0  0  0
    3.6638    5.7743    3.4162 C   0  0  0  0  0  0  0  0  0  0  0  0
    2.5400    7.4129    0.3744 C   0  0  0  0  0  0  0  0  0  0  0  0
    1.2046    7.4597   -0.3564 C   0  0  0  0  0  0  0  0  0  0  0  0
    0.3390    8.6620    0.0119 C   0  0  0  0  0  0  0  0  0  0  0  0
   -0.6038    8.4414    1.1904 C   0  0  0  0  0  0  0  0  0  0  0  0
   -0.0100    7.6138    2.3272 C   0  0  0  0  0  0  0  0  0  0  0  0
    1.4704    7.8554    2.6121 C   0  0  0  0  0  0  0  0  0  0  0  0
    1.0000    1.0000    1.0000 C   0  0  0  0  0  0  0  0  0  0  0  0
   -0.2629    0.7171    1.6971 N   0  0  0  0  0  0  0  0  0  0  0  0
   -0.6150   -0.5766    1.9787 C   0  0  0  0  0  0  0  0  0  0  0  0
    0.1075   -1.4788    1.6563 O   0  0  0  0  0  0  0  0  0  0  0  0
   -1.9209   -0.8691    2.6995 C   0  0  0  0  0  0  0  0  0  0  0  0
    0.7075    1.7208   -0.3059 C   0  0  0  0  0  0  0  0  0  0  0  0
   -0.1701    0.8432   -1.1835 C   0  0  0  0  0  0  0  0  0  0  0  0
   -1.5540    0.9425   -1.0842 C   0  0  0  0  0  0  0  0  0  0  0  0
   -2.3610    0.1420   -1.8857 C   0  0  0  0  0  0  0  0  0  0  0  0
   -1.7726   -0.7486   -2.7781 C   0  0  0  0  0  0  0  0  0  0  0  0
   -2.5520   -1.5276   -3.5577 O   0  0  0  0  0  0  0  0  0  0  0  0
   -0.3891   -0.8520   -2.8811 C   0  0  0  0  0  0  0  0  0  0  0  0
    0.4131   -0.0489   -2.0774 C   0  0  0  0  0  0  0  0  0  0  0  0
  1  2  2  0
  2  3  1  0
  3  4  1  0
  4  5  1  0
  5  6  1  0
  6  7  1  0
  7  8  1  0
  8  9  1  0
  9  5  1  0
  7 10  1  0
 10 11  1  0
 11 12  1  0
 12 13  1  0
 13 14  1  0
 14 15  1  0
 15  7  1  0
  2 16  1  0
 16 17  1  0
 17 18  1  0
 18 19  2  0
 18 20  1  0
 16 21  1  0
 21 22  1  0
 22 23  2  0
 23 24  1  0
 24 25  2  0
 25 26  1  0
 25 27  1  0
 27 28  2  0
 28 22  1  0
M  END
$$$$
s_22____7117056____17513450
     RDKit          3D

 28 30  0  0  0  0  0  0  0  0999 V2000
   -4.1237   -1.3962    3.7674 O   0  0  0  0  0  0  0  0  0  0  0  0
   -4.1847   -0.1995    3.7015 C   0  0  0  0  0  0  0  0  0  0  0  0
   -3.0226    0.5501    3.4670 N   0  0  0  0  0  0  0  0  0  0  0  0
   -1.6989    0.0029    3.1836 C   0  0  0  0  0  0  0  0  0  0  0  0
   -1.1538    1.0000    2.1865 C   0  0  0  0  0  0  0  0  0  0  0  0
    0.3150    1.0000    2.1865 N   0  0  0  0  0  0  0  0  0  0  0  0
    1.0000    1.0000    1.0000 C   0  0  0  0  0  0  0  0  0  0  0  0
    0.4000    1.0000   -0.0392 O   0  0  0  0  0  0  0  0  0  0  0  0
    2.5200    1.0000    1.0000 C   0  0  0  0  0  0  0  0  0  0  0  0
    3.0100    1.0000   -0.3859 N   0  0  0  0  0  0  0  0  0  0  0  0
    3.7976    2.0275   -0.8340 C   0  0  0  0  0  0  0  0  0  0  0  0
    4.0875    2.9275   -0.0951 O   0  0  0  0  0  0  0  0  0  0  0  0
    4.3043    2.0275   -2.2671 C   0  0  0  0  0  0  0  0  0  0  0  0
    3.0267   -0.2411    1.7165 C   0  0  0  0  0  0  0  0  0  0  0  0
    4.5467   -0.2411    1.7165 C   0  0  0  0  0  0  0  0  0  0  0  0
    5.2311    0.3644    2.7653 C   0  0  0  0  0  0  0  0  0  0  0  0
    6.6219    0.3662    2.7699 C   0  0  0  0  0  0  0  0  0  0  0  0
    7.3116   -0.2391    1.7241 C   0  0  0  0  0  0  0  0  0  0  0  0
    8.6614   -0.2393    1.7244 O   0  0  0  0  0  0  0  0  0  0  0  0
    6.6320   -0.8457    0.6727 C   0  0  0  0  0  0  0  0  0  0  0  0
    5.2412   -0.8449    0.6734 C   0  0  0  0  0  0  0  0  0  0  0  0
   -1.7077    2.3412    2.6262 C   0  0  0  0  0  0  0  0  0  0  0  0
   -2.9320    2.0142    3.4703 C   0  0  0  0  0  0  0  0  0  0  0  0
   -5.5219    0.5041    3.8723 C   0  0  0  0  0  0  0  0  0  0  0  0
   -6.4559   -0.2599    4.7808 C   0  0  0  0  0  0  0  0  0  0  0  0
   -7.8307    0.2975    4.4600 C   0  0  0  0  0  0  0  0  0  0  0  0
   -7.7332    0.7879    3.0221 C   0  0  0  0  0  0  0  0  0  0  0  0
   -6.3126    0.4885    2.5810 C   0  0  0  0  0  0  0  0  0  0  0  0
  1  2  2  0
  2  3  1  0
  3  4  1  0
  4  5  1  0
  5  6  1  0
  6  7  1  0
  7  8  2  0
  7  9  1  0
  9 10  1  0
 10 11  1  0
 11 12  2  0
 11 13  1  0
  9 14  1  0
 14 15  1  0
 15 16  2  0
 16 17  1  0
 17 18  2  0
 18 19  1  0
 18 20  1  0
 20 21  2  0
 21 15  1  0
  5 22  1  0
 22 23  1  0
 23  3  1  0
  2 24  1  0
 24 25  1  0
 25 26  1  0
 26 27  1  0
 27 28  1  0
 28 24  1  0
M  END
$$$$
s_22____16976658____12624298
     RDKit          3D

 26 26  0  0  0  0  0  0  0  0999 V2000
    1.6375   10.9968    3.5754 Br  0  0  0  0  0  0  0  0  0  0  0  0
    2.6558    9.3846    3.1229 C   0  0  0  0  0  0  0  0  0  0  0  0
    2.3855    8.1918    3.7846 C   0  0  0  0  0  0  0  0  0  0  0  0
    3.1176    7.0562    3.4525 C   0  0  0  0  0  0  0  0  0  0  0  0
    4.1065    7.1020    2.4756 C   0  0  0  0  0  0  0  0  0  0  0  0
    4.3611    8.3056    1.8264 C   0  0  0  0  0  0  0  0  0  0  0  0
    3.6407    9.4525    2.1432 C   0  0  0  0  0  0  0  0  0  0  0  0
    2.8251    5.7501    4.1734 C   0  0  0  0  0  0  0  0  0  0  0  0
    4.0880    5.0530    4.4563 N   0  0  0  0  0  0  0  0  0  0  0  0
    4.4401    4.7714    5.7500 C   0  0  0  0  0  0  0  0  0  0  0  0
    3.7176    5.0938    6.6522 O   0  0  0  0  0  0  0  0  0  0  0  0
    5.7459    4.0506    6.0425 C   0  0  0  0  0  0  0  0  0  0  0  0
    1.9475    4.8725    3.2958 C   0  0  0  0  0  0  0  0  0  0  0  0
    1.3109    5.3618    2.4040 O   0  0  0  0  0  0  0  0  0  0  0  0
    1.8833    3.5230    3.5230 N   0  0  0  0  0  0  0  0  0  0  0  0
    1.0577    2.6974    2.6974 O   0  0  0  0  0  0  0  0  0  0  0  0
    1.8776    1.8776    1.8776 C   0  0  0  0  0  0  0  0  0  0  0  0
    1.0000    1.0000    1.0000 C   0  0  0  0  0  0  0  0  0  0  0  0
    1.8776    0.1224    0.1224 C   0  0  0  0  0  0  0  0  0  0  0  0
    1.0000   -0.7551   -0.7551 C   0  0  0  0  0  0  0  0  0  0  0  0
    1.8776   -1.6327   -1.6327 C   0  0  0  0  0  0  0  0  0  0  0  0
    1.0000   -2.5103   -2.5103 C   0  0  0  0  0  0  0  0  0  0  0  0
    0.1224   -3.3879   -1.6327 C   0  0  0  0  0  0  0  0  0  0  0  0
   -0.7551   -4.2654   -2.5103 C   0  0  0  0  0  0  0  0  0  0  0  0
   -1.6327   -5.1430   -1.6327 C   0  0  0  0  0  0  0  0  0  0  0  0
   -2.5103   -6.0206   -2.5103 C   0  0  0  0  0  0  0  0  0  0  0  0
  1  2  1  0
  2  3  2  0
  3  4  1  0
  4  5  2  0
  5  6  1  0
  6  7  2  0
  7  2  1  0
  4  8  1  0
  8  9  1  0
  9 10  1  0
 10 11  2  0
 10 12  1  0
  8 13  1  0
 13 14  2  0
 13 15  1  0
 15 16  1  0
 16 17  1  0
 17 18  1  0
 18 19  1  0
 19 20  1  0
 20 21  1  0
 21 22  1  0
 22 23  1  0
 23 24  1  0
 24 25  1  0
 25 26  1  0
M  END
$$$$
s_22____14726554____12624298
     RDKit          3D

 25 26  0  0  0  0  0  0  0  0999 V2000
    8.3418    0.3852    2.2810 Br  0  0  0  0  0  0  0  0  0  0  0  0
    6.8764    0.2368    0.9881 C   0  0  0  0  0  0  0  0  0  0  0  0
    5.5791    0.0220    1.4403 C   0  0  0  0  0  0  0  0  0  0  0  0
    4.5498   -0.0818    0.5098 C   0  0  0  0  0  0  0  0  0  0  0  0
    4.8033    0.0260   -0.8534 C   0  0  0  0  0  0  0  0  0  0  0  0
    6.1084    0.2402   -1.2841 C   0  0  0  0  0  0  0  0  0  0  0  0
    7.1519    0.3471   -0.3707 C   0  0  0  0  0  0  0  0  0  0  0  0
    3.1300   -0.3164    1.0000 C   0  0  0  0  0  0  0  0  0  0  0  0
    2.4556   -1.2716    0.1091 N   0  0  0  0  0  0  0  0  0  0  0  0
    1.9801   -2.4555    0.6082 C   0  0  0  0  0  0  0  0  0  0  0  0
    2.1143   -2.7128    1.7726 O   0  0  0  0  0  0  0  0  0  0  0  0
    1.2827   -3.4432   -0.3129 C   0  0  0  0  0  0  0  0  0  0  0  0
    2.3700    1.0000    1.0000 C   0  0  0  0  0  0  0  0  0  0  0  0
    2.9700    2.0392    1.0000 O   0  0  0  0  0  0  0  0  0  0  0  0
    1.0000    1.0000    1.0000 N   0  0  0  0  0  0  0  0  0  0  0  0
    0.2650    2.2731    1.0000 C   0  0  0  0  0  0  0  0  0  0  0  0
   -1.2363    1.9940    1.0000 C   0  0  0  0  0  0  0  0  0  0  0  0
   -1.7891    1.8913   -0.2986 O   0  0  0  0  0  0  0  0  0  0  0  0
   -1.3845    0.6305   -0.7999 C   0  0  0  0  0  0  0  0  0  0  0  0
   -1.4975   -0.3042    0.3833 C   0  0  0  0  0  0  0  0  0  0  0  0
   -1.5850    0.6320    1.5690 C   0  0  0  0  0  0  0  0  0  0  0  0
   -1.9027    3.1101    1.7888 C   0  0  0  0  0  0  0  0  0  0  0  0
   -1.9134    4.3821    0.9566 C   0  0  0  0  0  0  0  0  0  0  0  0
   -3.3308    2.7114    2.1232 C   0  0  0  0  0  0  0  0  0  0  0  0
   -1.1299    3.3528    3.0750 C   0  0  0  0  0  0  0  0  0  0  0  0
  1  2  1  0
  2  3  2  0
  3  4  1  0
  4  5  2  0
  5  6  1  0
  6  7  2  0
  7  2  1  0
  4  8  1  0
  8  9  1  0
  9 10  1  0
 10 11  2  0
 10 12  1  0
  8 13  1  0
 13 14  2  0
 13 15  1  0
 15 16  1  0
 16 17  1  0
 17 18  1  0
 18 19  1  0
 19 20  1  0
 20 21  1  0
 21 17  1  0
 17 22  1  0
 22 23  1  0
 22 24  1  0
 22 25  1  0
M  END
$$$$
s_22____14938888____3192126
     RDKit          3D

 27 29  0  0  0  0  0  0  0  0999 V2000
    2.9191   -0.2979    0.5450 O   0  0  0  0  0  0  0  0  0  0  0  0
    1.8776    0.1224    0.1224 C   0  0  0  0  0  0  0  0  0  0  0  0
    1.4795   -0.1886   -1.1510 N   0  0  0  0  0  0  0  0  0  0  0  0
    2.3282   -1.0373   -1.9997 C   0  0  0  0  0  0  0  0  0  0  0  0
    1.6615   -1.2281   -3.3543 C   0  0  0  0  0  0  0  0  0  0  0  0
    1.4447   -0.0097   -4.0483 O   0  0  0  0  0  0  0  0  0  0  0  0
    2.6756    0.4288   -4.6053 C   0  0  0  0  0  0  0  0  0  0  0  0
    3.5079   -0.8263   -4.7864 C   0  0  0  0  0  0  0  0  0  0  0  0
    2.5452   -1.9185   -4.3740 C   0  0  0  0  0  0  0  0  0  0  0  0
    0.3592   -1.9880   -3.1573 C   0  0  0  0  0  0  0  0  0  0  0  0
   -0.2754   -2.3181   -4.4767 C   0  0  0  0  0  0  0  0  0  0  0  0
   -0.8355   -1.2111   -3.6305 C   0  0  0  0  0  0  0  0  0  0  0  0
    1.0000    1.0000    1.0000 C   0  0  0  0  0  0  0  0  0  0  0  0
    1.8776    1.8776    1.8776 C   0  0  0  0  0  0  0  0  0  0  0  0
    1.0385    2.5935    2.8494 N   0  0  0  0  0  0  0  0  0  0  0  0
    1.2401    2.4132    4.1924 C   0  0  0  0  0  0  0  0  0  0  0  0
    2.1015    1.6708    4.5755 O   0  0  0  0  0  0  0  0  0  0  0  0
    0.3725    3.1535    5.1972 C   0  0  0  0  0  0  0  0  0  0  0  0
    2.6181    2.8827    1.0098 C   0  0  0  0  0  0  0  0  0  0  0  0
    3.9722    2.7066    0.7427 C   0  0  0  0  0  0  0  0  0  0  0  0
    4.6440    1.6491    1.2466 O   0  0  0  0  0  0  0  0  0  0  0  0
    6.0504    1.5542    1.0751 C   0  0  0  0  0  0  0  0  0  0  0  0
    6.5559    0.2798    1.7314 C   0  0  0  0  0  0  0  0  0  0  0  0
    4.6500    3.6264   -0.0513 C   0  0  0  0  0  0  0  0  0  0  0  0
    3.9732    4.7221   -0.5785 C   0  0  0  0  0  0  0  0  0  0  0  0
    2.6190    4.8974   -0.3117 C   0  0  0  0  0  0  0  0  0  0  0  0
    1.9416    3.9774    0.4819 C   0  0  0  0  0  0  0  0  0  0  0  0
  1  2  2  0
  2  3  1  0
  3  4  1  0
  4  5  1  0
  5  6  1  0
  6  7  1  0
  7  8  1  0
  8  9  1  0
  9  5  1  0
  5 10  1  0
 10 11  1  0
 11 12  1  0
 12 10  1  0
  2 13  1  0
 13 14  1  0
 14 15  1  0
 15 16  1  0
 16 17  2  0
 16 18  1  0
 14 19  1  0
 19 20  2  0
 20 21  1  0
 21 22  1  0
 22 23  1  0
 20 24  1  0
 24 25  2  0
 25 26  1  0
 26 27  2  0
 27 19  1  0
M  END
$$$$
s_22____15265870____16887748
     RDKit          3D

 30 32  0  0  0  0  0  0  0  0999 V2000
    3.9272   -0.8352    0.7118 O   0  0  0  0  0  0  0  0  0  0  0  0
    2.9767   -0.2411    0.2835 C   0  0  0  0  0  0  0  0  0  0  0  0
    2.3481   -0.6814   -0.8514 N   0  0  0  0  0  0  0  0  0  0  0  0
    2.8381   -1.8817   -1.5444 C   0  0  0  0  0  0  0  0  0  0  0  0
    2.3317   -3.1221   -0.8282 C   0  0  0  0  0  0  0  0  0  0  0  0
    2.7866   -3.1621    0.5277 O   0  0  0  0  0  0  0  0  0  0  0  0
    1.8041   -3.7587    1.3454 C   0  0  0  0  0  0  0  0  0  0  0  0
    0.7171   -4.2241    0.3879 C   0  0  0  0  0  0  0  0  0  0  0  0
    0.8428   -3.0645   -0.5681 C   0  0  0  0  0  0  0  0  0  0  0  0
    1.0279   -5.5868   -0.2175 C   0  0  0  0  0  0  0  0  0  0  0  0
    2.4420   -5.6600   -0.7763 C   0  0  0  0  0  0  0  0  0  0  0  0
    2.7903   -4.3897   -1.5381 C   0  0  0  0  0  0  0  0  0  0  0  0
   -0.6471   -4.2419    1.0621 C   0  0  0  0  0  0  0  0  0  0  0  0
    2.4700    1.0000    1.0000 C   0  0  0  0  0  0  0  0  0  0  0  0
    1.0000    1.0000    1.0000 N   0  0  0  0  0  0  0  0  0  0  0  0
    0.3150    1.0000    2.1865 C   0  0  0  0  0  0  0  0  0  0  0  0
    0.9150    1.0000    3.2257 O   0  0  0  0  0  0  0  0  0  0  0  0
   -1.2050    1.0000    2.1865 C   0  0  0  0  0  0  0  0  0  0  0  0
   -1.6783    1.0000    3.5252 O   0  0  0  0  0  0  0  0  0  0  0  0
   -3.0983    1.0000    3.5252 C   0  0  0  0  0  0  0  0  0  0  0  0
   -3.6050    1.0000    4.9583 C   0  0  0  0  0  0  0  0  0  0  0  0
   -3.6050    2.2411    2.8087 C   0  0  0  0  0  0  0  0  0  0  0  0
    2.9767    2.2411    0.2835 C   0  0  0  0  0  0  0  0  0  0  0  0
    2.4700    3.4822    1.0000 C   0  0  0  0  0  0  0  0  0  0  0  0
    3.2306    4.0410    2.0218 C   0  0  0  0  0  0  0  0  0  0  0  0
    2.7714    5.1770    2.6798 C   0  0  0  0  0  0  0  0  0  0  0  0
    1.5555    5.7409    2.3064 C   0  0  0  0  0  0  0  0  0  0  0  0
    1.1058    6.8432    2.9425 O   0  0  0  0  0  0  0  0  0  0  0  0
    0.7907    5.1858    1.2854 C   0  0  0  0  0  0  0  0  0  0  0  0
    1.2550    4.0500    0.6306 C   0  0  0  0  0  0  0  0  0  0  0  0
  1  2  2  0
  2  3  1  0
  3  4  1  0
  4  5  1  0
  5  6  1  0
  6  7  1  0
  7  8  1  0
  8  9  1  0
  9  5  1  0
  8 10  1  0
 10 11  1  0
 11 12  1  0
 12  5  1  0
  8 13  1  0
  2 14  1  0
 14 15  1  0
 15 16  1  0
 16 17  2  0
 16 18  1  0
 18 19  1  0
 19 20  1  0
 20 21  1  0
 20 22  1  0
 14 23  1  0
 23 24  1  0
 24 25  2  0
 25 26  1  0
 26 27  2  0
 27 28  1  0
 27 29  1  0
 29 30  2  0
 30 24  1  0
M  END
$$$$
s_2708____11569280____16638094
     RDKit          3D

 29 30  0  0  0  0  0  0  0  0999 V2000
    2.8671   -5.1044    1.5068 F   0  0  0  0  0  0  0  0  0  0  0  0
    2.7102   -3.9439    0.8758 C   0  0  0  0  0  0  0  0  0  0  0  0
    3.8192   -3.2813    0.3599 C   0  0  0  0  0  0  0  0  0  0  0  0
    3.6474   -2.0676   -0.2979 C   0  0  0  0  0  0  0  0  0  0  0  0
    2.3710   -1.5318   -0.4321 C   0  0  0  0  0  0  0  0  0  0  0  0
    1.2657   -2.1989    0.0852 C   0  0  0  0  0  0  0  0  0  0  0  0
    1.4313   -3.4128    0.7436 C   0  0  0  0  0  0  0  0  0  0  0  0
    2.1902   -0.2055   -1.1517 C   0  0  0  0  0  0  0  0  0  0  0  0
    2.9767    0.8751   -0.4276 C   0  0  0  0  0  0  0  0  0  0  0  0
    2.7959    2.2017   -1.1473 C   0  0  0  0  0  0  0  0  0  0  0  0
    1.7039    2.5448   -1.5078 O   0  0  0  0  0  0  0  0  0  0  0  0
    3.8795    3.0056   -1.3844 N   0  0  0  0  0  0  0  0  0  0  0  0
    3.6865    4.4358   -1.6639 C   0  0  0  0  0  0  0  0  0  0  0  0
    5.2353    2.4380   -1.3593 C   0  0  0  0  0  0  0  0  0  0  0  0
    2.4700    1.0000    1.0000 C   0  0  0  0  0  0  0  0  0  0  0  0
    1.0000    1.0000    1.0000 N   0  0  0  0  0  0  0  0  0  0  0  0
    0.3150    1.0000    2.1865 C   0  0  0  0  0  0  0  0  0  0  0  0
    0.9150    1.0000    3.2257 O   0  0  0  0  0  0  0  0  0  0  0  0
   -1.0863    1.0000    2.1865 N   0  0  0  0  0  0  0  0  0  0  0  0
   -1.8490    1.0000    0.9296 C   0  0  0  0  0  0  0  0  0  0  0  0
   -2.2105   -0.4397    0.6002 C   0  0  0  0  0  0  0  0  0  0  0  0
   -3.0021   -0.4793   -0.6969 C   0  0  0  0  0  0  0  0  0  0  0  0
   -2.1610    0.1020   -1.8216 C   0  0  0  0  0  0  0  0  0  0  0  0
   -3.3634   -1.9185   -1.0262 C   0  0  0  0  0  0  0  0  0  0  0  0
   -3.1210    1.8167    1.1159 C   0  0  0  0  0  0  0  0  0  0  0  0
   -2.8986    3.1636    1.7910 C   0  0  0  0  0  0  0  0  0  0  0  0
   -3.1130    3.1241    3.1998 O   0  0  0  0  0  0  0  0  0  0  0  0
   -2.1331    2.4163    3.9557 C   0  0  0  0  0  0  0  0  0  0  0  0
   -1.8183    1.0085    3.4643 C   0  0  0  0  0  0  0  0  0  0  0  0
  1  2  1  0
  2  3  2  0
  3  4  1  0
  4  5  2  0
  5  6  1  0
  6  7  2  0
  7  2  1  0
  5  8  1  0
  8  9  1  0
  9 10  1  0
 10 11  2  0
 10 12  1  0
 12 13  1  0
 12 14  1  0
  9 15  1  0
 15 16  1  0
 16 17  1  0
 17 18  2  0
 17 19  1  0
 19 20  1  0
 20 21  1  0
 21 22  1  0
 22 23  1  0
 22 24  1  0
 20 25  1  0
 25 26  1  0
 26 27  1  0
 27 28  1  0
 28 29  1  0
 29 19  1  0
M  END
$$$$
s_22____2081052____16717358
     RDKit          3D

 31 32  0  0  0  0  0  0  0  0999 V2000
    0.4000    1.0000   -0.0392 O   0  0  0  0  0  0  0  0  0  0  0  0
    1.0000    1.0000    1.0000 C   0  0  0  0  0  0  0  0  0  0  0  0
    0.3015    1.0000    2.2099 N   0  0  0  0  0  0  0  0  0  0  0  0
    1.0758    1.0131    3.4619 C   0  0  0  0  0  0  0  0  0  0  0  0
    0.3669    0.2598    4.5787 C   0  0  0  0  0  0  0  0  0  0  0  0
   -1.1117    0.6106    4.6671 C   0  0  0  0  0  0  0  0  0  0  0  0
   -1.6925   -0.2023    5.6770 O   0  0  0  0  0  0  0  0  0  0  0  0
   -3.1077   -0.1164    5.5982 C   0  0  0  0  0  0  0  0  0  0  0  0
   -3.7291   -0.9863    6.6787 C   0  0  0  0  0  0  0  0  0  0  0  0
   -5.2439   -0.8943    6.5943 C   0  0  0  0  0  0  0  0  0  0  0  0
   -5.8653   -1.7642    7.6749 C   0  0  0  0  0  0  0  0  0  0  0  0
   -5.6758    0.5492    6.7953 C   0  0  0  0  0  0  0  0  0  0  0  0
   -1.7660    0.2275    3.3466 C   0  0  0  0  0  0  0  0  0  0  0  0
   -1.1698    0.9823    2.1667 C   0  0  0  0  0  0  0  0  0  0  0  0
    2.5200    1.0000    1.0000 C   0  0  0  0  0  0  0  0  0  0  0  0
    3.0100    0.4143   -0.2561 N   0  0  0  0  0  0  0  0  0  0  0  0
    3.7976   -0.7063   -0.2279 C   0  0  0  0  0  0  0  0  0  0  0  0
    4.0875   -1.2097    0.8221 O   0  0  0  0  0  0  0  0  0  0  0  0
    4.3043   -1.3120   -1.5267 C   0  0  0  0  0  0  0  0  0  0  0  0
    5.1210   -2.4974   -1.2288 N   0  0  0  0  0  0  0  0  0  0  0  0
    5.6880   -3.2129   -2.2503 C   0  0  0  0  0  0  0  0  0  0  0  0
    5.5179   -2.8720   -3.3882 O   0  0  0  0  0  0  0  0  0  0  0  0
    6.5324   -4.4386   -1.9423 C   0  0  0  0  0  0  0  0  0  0  0  0
    3.0267    2.4276    1.1249 C   0  0  0  0  0  0  0  0  0  0  0  0
    4.4439    2.4160    1.6744 C   0  0  0  0  0  0  0  0  0  0  0  0
    4.6450    2.4672    3.0498 C   0  0  0  0  0  0  0  0  0  0  0  0
    5.9400    2.4561    3.5572 C   0  0  0  0  0  0  0  0  0  0  0  0
    7.0189    2.3933    2.6810 C   0  0  0  0  0  0  0  0  0  0  0  0
    8.2773    2.3827    3.1692 O   0  0  0  0  0  0  0  0  0  0  0  0
    6.8233    2.3423    1.3046 C   0  0  0  0  0  0  0  0  0  0  0  0
    5.5262    2.3533    0.8028 C   0  0  0  0  0  0  0  0  0  0  0  0
  1  2  2  0
  2  3  1  0
  3  4  1  0
  4  5  1  0
  5  6  1  0
  6  7  1  0
  7  8  1  0
  8  9  1  0
  9 10  1  0
 10 11  1  0
 10 12  1  0
  6 13  1  0
 13 14  1  0
 14  3  1  0
  2 15  1  0
 15 16  1  0
 16 17  1  0
 17 18  2  0
 17 19  1  0
 19 20  1  0
 20 21  1  0
 21 22  2  0
 21 23  1  0
 15 24  1  0
 24 25  1  0
 25 26  2  0
 26 27  1  0
 27 28  2  0
 28 29  1  0
 28 30  1  0
 30 31  2  0
 31 25  1  0
M  END
$$$$
s_188690b____13773506____17513482
     RDKit          3D

 26 27  0  0  0  0  0  0  0  0999 V2000
   -3.4050   -2.5574    3.2296 O   0  0  0  0  0  0  0  0  0  0  0  0
   -3.7024   -1.4554    3.6312 C   0  0  0  0  0  0  0  0  0  0  0  0
   -4.3989   -1.3328    4.6619 O   0  0  0  0  0  0  0  0  0  0  0  0
   -3.2295   -0.2213    2.8831 C   0  0  0  0  0  0  0  0  0  0  0  0
   -3.6918    0.9641    3.5268 O   0  0  0  0  0  0  0  0  0  0  0  0
   -3.2375    2.1833    2.9450 C   0  0  0  0  0  0  0  0  0  0  0  0
   -1.7171    2.2404    2.8645 C   0  0  0  0  0  0  0  0  0  0  0  0
   -1.1554    1.0000    2.1865 C   0  0  0  0  0  0  0  0  0  0  0  0
    0.3150    1.0000    2.1865 N   0  0  0  0  0  0  0  0  0  0  0  0
    1.0000    1.0000    1.0000 C   0  0  0  0  0  0  0  0  0  0  0  0
    0.4000    1.0000   -0.0392 O   0  0  0  0  0  0  0  0  0  0  0  0
    2.5200    1.0000    1.0000 C   0  0  0  0  0  0  0  0  0  0  0  0
    3.0100    1.0000   -0.3859 N   0  0  0  0  0  0  0  0  0  0  0  0
    3.7976    2.0275   -0.8340 C   0  0  0  0  0  0  0  0  0  0  0  0
    4.0875    2.9275   -0.0951 O   0  0  0  0  0  0  0  0  0  0  0  0
    4.3043    2.0275   -2.2671 C   0  0  0  0  0  0  0  0  0  0  0  0
    3.0267   -0.2411    1.7165 C   0  0  0  0  0  0  0  0  0  0  0  0
    4.5467   -0.2411    1.7165 C   0  0  0  0  0  0  0  0  0  0  0  0
    5.2311    0.3644    2.7653 C   0  0  0  0  0  0  0  0  0  0  0  0
    6.6219    0.3662    2.7699 C   0  0  0  0  0  0  0  0  0  0  0  0
    7.3116   -0.2391    1.7241 C   0  0  0  0  0  0  0  0  0  0  0  0
    8.6614   -0.2393    1.7244 O   0  0  0  0  0  0  0  0  0  0  0  0
    6.6320   -0.8457    0.6727 C   0  0  0  0  0  0  0  0  0  0  0  0
    5.2412   -0.8449    0.6734 C   0  0  0  0  0  0  0  0  0  0  0  0
   -1.7080   -0.2268    2.8947 C   0  0  0  0  0  0  0  0  0  0  0  0
   -3.7743   -0.3518    1.4665 C   0  0  0  0  0  0  0  0  0  0  0  0
  1  2  1  0
  2  3  2  0
  2  4  1  0
  4  5  1  0
  5  6  1  0
  6  7  1  0
  7  8  1  0
  8  9  1  0
  9 10  1  0
 10 11  2  0
 10 12  1  0
 12 13  1  0
 13 14  1  0
 14 15  2  0
 14 16  1  0
 12 17  1  0
 17 18  1  0
 18 19  2  0
 19 20  1  0
 20 21  2  0
 21 22  1  0
 21 23  1  0
 23 24  2  0
 24 18  1  0
  8 25  1  0
 25  4  1  0
  4 26  1  0
M  CHG  1   1  -1
M  END
$$$$
s_22____9399000____17057108
     RDKit          3D

 28 29  0  0  0  0  0  0  0  0999 V2000
    0.4000    1.0000   -0.0392 O   0  0  0  0  0  0  0  0  0  0  0  0
    1.0000    1.0000    1.0000 C   0  0  0  0  0  0  0  0  0  0  0  0
    0.3150    1.0000    2.1865 N   0  0  0  0  0  0  0  0  0  0  0  0
   -1.1550    1.0000    2.1865 C   0  0  0  0  0  0  0  0  0  0  0  0
   -1.6632    1.0000    3.6238 C   0  0  0  0  0  0  0  0  0  0  0  0
   -1.2224   -0.1371    4.3466 O   0  0  0  0  0  0  0  0  0  0  0  0
   -1.4626    2.2916    4.3959 C   0  0  0  0  0  0  0  0  0  0  0  0
   -2.8003    2.7399    3.8387 C   0  0  0  0  0  0  0  0  0  0  0  0
   -3.5580    3.4577    4.8027 O   0  0  0  0  0  0  0  0  0  0  0  0
   -2.8352    4.6101    5.2103 C   0  0  0  0  0  0  0  0  0  0  0  0
   -3.6457    5.3780    6.2417 C   0  0  0  0  0  0  0  0  0  0  0  0
   -3.1444    1.2651    3.7893 C   0  0  0  0  0  0  0  0  0  0  0  0
    2.5200    1.0000    1.0000 C   0  0  0  0  0  0  0  0  0  0  0  0
    3.0100    1.0000   -0.3859 N   0  0  0  0  0  0  0  0  0  0  0  0
    3.7976   -0.0275   -0.8340 C   0  0  0  0  0  0  0  0  0  0  0  0
    4.0138   -0.9711   -0.1248 O   0  0  0  0  0  0  0  0  0  0  0  0
    4.3977    0.0277   -2.2295 C   0  0  0  0  0  0  0  0  0  0  0  0
    4.8450   -1.3646   -2.6441 C   0  0  0  0  0  0  0  0  0  0  0  0
    3.6531   -2.1413   -3.1792 C   0  0  0  0  0  0  0  0  0  0  0  0
    5.9057   -1.2544   -3.7273 C   0  0  0  0  0  0  0  0  0  0  0  0
    3.0267    2.2411    1.7165 C   0  0  0  0  0  0  0  0  0  0  0  0
    4.5467    2.2411    1.7165 C   0  0  0  0  0  0  0  0  0  0  0  0
    5.2311    1.6356    2.7653 C   0  0  0  0  0  0  0  0  0  0  0  0
    6.6219    1.6325    2.7691 C   0  0  0  0  0  0  0  0  0  0  0  0
    7.3116    2.2356    1.7220 C   0  0  0  0  0  0  0  0  0  0  0  0
    8.6614    2.2352    1.7220 O   0  0  0  0  0  0  0  0  0  0  0  0
    6.6320    2.8428    0.6710 C   0  0  0  0  0  0  0  0  0  0  0  0
    5.2412    2.8426    0.6720 C   0  0  0  0  0  0  0  0  0  0  0  0
  1  2  2  0
  2  3  1  0
  3  4  1  0
  4  5  1  0
  5  6  1  0
  5  7  1  0
  7  8  1  0
  8  9  1  0
  9 10  1  0
 10 11  1  0
  8 12  1  0
 12  5  1  0
  2 13  1  0
 13 14  1  0
 14 15  1  0
 15 16  2  0
 15 17  1  0
 17 18  1  0
 18 19  1  0
 18 20  1  0
 13 21  1  0
 21 22  1  0
 22 23  2  0
 23 24  1  0
 24 25  2  0
 25 26  1  0
 25 27  1  0
 27 28  2  0
 28 22  1  0
M  END
$$$$
s_2708____13426432____16638094
     RDKit          3D

 24 25  0  0  0  0  0  0  0  0999 V2000
    3.2674   -5.6809   -0.0041 F   0  0  0  0  0  0  0  0  0  0  0  0
    3.9167   -4.5375   -0.2035 C   0  0  0  0  0  0  0  0  0  0  0  0
    5.2919   -4.5590   -0.4121 C   0  0  0  0  0  0  0  0  0  0  0  0
    5.9601   -3.3568   -0.6197 C   0  0  0  0  0  0  0  0  0  0  0  0
    7.2945   -3.3689   -0.8231 O   0  0  0  0  0  0  0  0  0  0  0  0
    5.2770   -2.1453   -0.6219 C   0  0  0  0  0  0  0  0  0  0  0  0
    3.9026   -2.1523   -0.4113 C   0  0  0  0  0  0  0  0  0  0  0  0
    3.2101   -3.3397   -0.2009 C   0  0  0  0  0  0  0  0  0  0  0  0
    3.1428   -0.8363   -0.4113 C   0  0  0  0  0  0  0  0  0  0  0  0
    3.1050   -0.2731    1.0000 C   0  0  0  0  0  0  0  0  0  0  0  0
    2.3700    1.0000    1.0000 N   0  0  0  0  0  0  0  0  0  0  0  0
    1.0000    1.0000    1.0000 C   0  0  0  0  0  0  0  0  0  0  0  0
    0.4000   -0.0392    1.0000 O   0  0  0  0  0  0  0  0  0  0  0  0
    0.2994    2.2136    1.0000 N   0  0  0  0  0  0  0  0  0  0  0  0
   -1.1705    2.2457    1.0000 C   0  0  0  0  0  0  0  0  0  0  0  0
   -1.6365    2.3940    2.4397 C   0  0  0  0  0  0  0  0  0  0  0  0
   -3.1556    2.4310    2.4793 C   0  0  0  0  0  0  0  0  0  0  0  0
   -3.7091    1.1402    1.8980 C   0  0  0  0  0  0  0  0  0  0  0  0
   -3.6215    2.5793    3.9185 C   0  0  0  0  0  0  0  0  0  0  0  0
   -1.6451    3.4404    0.1833 C   0  0  0  0  0  0  0  0  0  0  0  0
   -0.9493    3.5853   -1.1636 C   0  0  0  0  0  0  0  0  0  0  0  0
    0.1636    4.4754   -1.1241 O   0  0  0  0  0  0  0  0  0  0  0  0
    1.3082    4.0047   -0.4163 C   0  0  0  0  0  0  0  0  0  0  0  0
    1.0400    3.4865    0.9915 C   0  0  0  0  0  0  0  0  0  0  0  0
  1  2  1  0
  2  3  2  0
  3  4  1  0
  4  5  1  0
  4  6  2  0
  6  7  1  0
  7  8  2  0
  8  2  1  0
  7  9  1  0
  9 10  1  0
 10 11  1  0
 11 12  1  0
 12 13  2  0
 12 14  1  0
 14 15  1  0
 15 16  1  0
 16 17  1  0
 17 18  1  0
 17 19  1  0
 15 20  1  0
 20 21  1  0
 21 22  1  0
 22 23  1  0
 23 24  1  0
 24 14  1  0
M  END
$$$$
s_22____1180386____17513450
     RDKit          3D

 29 30  0  0  0  0  0  0  0  0999 V2000
    1.8484    3.5735    1.9572 S   0  0  0  0  0  0  0  0  0  0  0  0
    3.0879    3.6708    3.1175 C   0  0  0  0  0  0  0  0  0  0  0  0
    3.4435    2.4341    3.3800 N   0  0  0  0  0  0  0  0  0  0  0  0
    2.8017    1.4803    2.7237 N   0  0  0  0  0  0  0  0  0  0  0  0
    1.8780    1.8780    1.8780 C   0  0  0  0  0  0  0  0  0  0  0  0
    1.0000    1.0000    1.0000 C   0  0  0  0  0  0  0  0  0  0  0  0
    1.6863    0.7734   -0.3372 C   0  0  0  0  0  0  0  0  0  0  0  0
    0.8087   -0.1042   -1.2148 C   0  0  0  0  0  0  0  0  0  0  0  0
    1.4949   -0.3308   -2.5520 C   0  0  0  0  0  0  0  0  0  0  0  0
    0.6174   -1.2084   -3.4295 C   0  0  0  0  0  0  0  0  0  0  0  0
    1.3036   -1.4351   -4.7667 C   0  0  0  0  0  0  0  0  0  0  0  0
    0.4261   -2.3126   -5.6443 C   0  0  0  0  0  0  0  0  0  0  0  0
    1.1123   -2.5393   -6.9815 C   0  0  0  0  0  0  0  0  0  0  0  0
    3.6293    4.9060    3.7024 N   0  0  0  0  0  0  0  0  0  0  0  0
    4.6330    4.8408    4.6325 C   0  0  0  0  0  0  0  0  0  0  0  0
    5.0703    3.7754    4.9698 O   0  0  0  0  0  0  0  0  0  0  0  0
    5.1928    6.1180    5.2374 C   0  0  0  0  0  0  0  0  0  0  0  0
    6.6051    5.9148    5.5909 N   0  0  0  0  0  0  0  0  0  0  0  0
    7.5868    6.1897    4.6757 C   0  0  0  0  0  0  0  0  0  0  0  0
    7.2937    6.5964    3.5854 O   0  0  0  0  0  0  0  0  0  0  0  0
    9.0471    5.9795    5.0413 C   0  0  0  0  0  0  0  0  0  0  0  0
    4.4040    6.4751    6.4867 C   0  0  0  0  0  0  0  0  0  0  0  0
    4.9638    7.7523    7.0915 C   0  0  0  0  0  0  0  0  0  0  0  0
    4.4488    8.9814    6.6927 C   0  0  0  0  0  0  0  0  0  0  0  0
    4.9574   10.1526    7.2440 C   0  0  0  0  0  0  0  0  0  0  0  0
    5.9759   10.0795    8.1890 C   0  0  0  0  0  0  0  0  0  0  0  0
    6.4984   11.2728    8.7542 O   0  0  0  0  0  0  0  0  0  0  0  0
    6.4947    8.8529    8.5911 C   0  0  0  0  0  0  0  0  0  0  0  0
    5.9821    7.6849    8.0369 C   0  0  0  0  0  0  0  0  0  0  0  0
  1  2  1  0
  2  3  2  0
  3  4  1  0
  4  5  2  0
  5  1  1  0
  5  6  1  0
  6  7  1  0
  7  8  1  0
  8  9  1  0
  9 10  1  0
 10 11  1  0
 11 12  1  0
 12 13  1  0
  2 14  1  0
 14 15  1  0
 15 16  2  0
 15 17  1  0
 17 18  1  0
 18 19  1  0
 19 20  2  0
 19 21  1  0
 17 22  1  0
 22 23  1  0
 23 24  2  0
 24 25  1  0
 25 26  2  0
 26 27  1  0
 26 28  1  0
 28 29  2  0
 29 23  1  0
M  END
$$$$
s_22____12206138____5635622
     RDKit          3D

 26 26  0  0  0  0  0  0  0  0999 V2000
    2.7591    4.9071    7.5024 O   0  0  0  0  0  0  0  0  0  0  0  0
    1.8605    4.9533    6.7084 C   0  0  0  0  0  0  0  0  0  0  0  0
    0.6275    4.7515    7.1022 O   0  0  0  0  0  0  0  0  0  0  0  0
    0.3542    4.4783    8.4686 C   0  0  0  0  0  0  0  0  0  0  0  0
    2.1530    5.2458    5.2458 C   0  0  0  0  0  0  0  0  0  0  0  0
    1.3043    4.3971    4.3971 N   0  0  0  0  0  0  0  0  0  0  0  0
    1.8776    3.5172    3.5172 C   0  0  0  0  0  0  0  0  0  0  0  0
    3.0725    3.4394    3.4394 O   0  0  0  0  0  0  0  0  0  0  0  0
    1.0000    2.6397    2.6397 C   0  0  0  0  0  0  0  0  0  0  0  0
    1.8198    1.8198    1.8198 O   0  0  0  0  0  0  0  0  0  0  0  0
    1.0000    1.0000    1.0000 C   0  0  0  0  0  0  0  0  0  0  0  0
    1.8776    0.1224    0.1224 C   0  0  0  0  0  0  0  0  0  0  0  0
    1.0000   -0.7551   -0.7551 C   0  0  0  0  0  0  0  0  0  0  0  0
    1.8776   -1.6327   -1.6327 C   0  0  0  0  0  0  0  0  0  0  0  0
    1.0000   -2.5103   -2.5103 C   0  0  0  0  0  0  0  0  0  0  0  0
    0.1224   -3.3879   -1.6327 C   0  0  0  0  0  0  0  0  0  0  0  0
   -0.7551   -4.2654   -2.5103 C   0  0  0  0  0  0  0  0  0  0  0  0
   -1.6327   -5.1430   -1.6327 C   0  0  0  0  0  0  0  0  0  0  0  0
    1.8605    6.7084    4.9533 C   0  0  0  0  0  0  0  0  0  0  0  0
    2.7383    7.5863    5.8311 C   0  0  0  0  0  0  0  0  0  0  0  0
    3.9920    7.9878    5.3805 C   0  0  0  0  0  0  0  0  0  0  0  0
    4.4447    7.6065    4.1668 O   0  0  0  0  0  0  0  0  0  0  0  0
    4.7955    8.7909    6.1839 C   0  0  0  0  0  0  0  0  0  0  0  0
    4.3447    9.1929    7.4375 C   0  0  0  0  0  0  0  0  0  0  0  0
    3.0908    8.7916    7.8874 C   0  0  0  0  0  0  0  0  0  0  0  0
    2.2876    7.9889    7.0838 C   0  0  0  0  0  0  0  0  0  0  0  0
  1  2  2  0
  2  3  1  0
  3  4  1  0
  2  5  1  0
  5  6  1  0
  6  7  1  0
  7  8  2  0
  7  9  1  0
  9 10  1  0
 10 11  1  0
 11 12  1  0
 12 13  1  0
 13 14  1  0
 14 15  1  0
 15 16  1  0
 16 17  1  0
 17 18  1  0
  5 19  1  0
 19 20  1  0
 20 21  2  0
 21 22  1  0
 21 23  1  0
 23 24  2  0
 24 25  1  0
 25 26  2  0
 26 20  1  0
M  END
$$$$
s_527a____6463780____220034
     RDKit          3D

 23 24  0  0  0  0  0  0  0  0999 V2000
    7.8788    4.4274    4.2871 S   0  0  0  0  0  0  0  0  0  0  0  0
    6.4144    5.1458    4.7701 C   0  0  0  0  0  0  0  0  0  0  0  0
    6.2898    4.9526    6.1106 C   0  0  0  0  0  0  0  0  0  0  0  0
    7.3756    4.2256    6.6726 C   0  0  0  0  0  0  0  0  0  0  0  0
    8.3603    3.8426    5.8120 C   0  0  0  0  0  0  0  0  0  0  0  0
    5.4412    5.8707    3.8516 C   0  0  0  0  0  0  0  0  0  0  0  0
    5.1006    7.1776    4.4319 N   0  0  0  0  0  0  0  0  0  0  0  0
    5.3778    8.3274    3.7405 C   0  0  0  0  0  0  0  0  0  0  0  0
    5.8987    8.2675    2.6610 O   0  0  0  0  0  0  0  0  0  0  0  0
    5.0257    9.6788    4.3406 C   0  0  0  0  0  0  0  0  0  0  0  0
    4.1774    5.0406    3.6960 C   0  0  0  0  0  0  0  0  0  0  0  0
    4.4982    3.7682    2.9288 C   0  0  0  0  0  0  0  0  0  0  0  0
    5.6401    3.4714    2.7098 O   0  0  0  0  0  0  0  0  0  0  0  0
    3.4600    2.9414    2.4772 N   0  0  0  0  0  0  0  0  0  0  0  0
    3.3636    1.6408    1.8121 C   0  0  0  0  0  0  0  0  0  0  0  0
    2.0351    1.5148    2.5277 C   0  0  0  0  0  0  0  0  0  0  0  0
    1.0451    0.9291    1.6923 O   0  0  0  0  0  0  0  0  0  0  0  0
   -0.1790    0.8323    2.4055 C   0  0  0  0  0  0  0  0  0  0  0  0
   -0.2404   -0.5038    3.1275 C   0  0  0  0  0  0  0  0  0  0  0  0
   -1.5507   -0.6075    3.8909 C   0  0  0  0  0  0  0  0  0  0  0  0
   -1.6121   -1.9436    4.6130 C   0  0  0  0  0  0  0  0  0  0  0  0
   -2.9224   -2.0473    5.3764 C   0  0  0  0  0  0  0  0  0  0  0  0
    2.0030    3.0231    2.4628 C   0  0  0  0  0  0  0  0  0  0  0  0
  1  2  1  0
  2  3  2  0
  3  4  1  0
  4  5  2  0
  5  1  1  0
  2  6  1  0
  6  7  1  0
  7  8  1  0
  8  9  2  0
  8 10  1  0
  6 11  1  0
 11 12  1  0
 12 13  2  0
 12 14  1  0
 14 15  1  0
 15 16  1  0
 16 17  1  0
 17 18  1  0
 18 19  1  0
 19 20  1  0
 20 21  1  0
 21 22  1  0
 16 23  1  0
 23 14  1  0
M  END
$$$$
s_22____10436222____12624298
     RDKit          3D

 25 27  0  0  0  0  0  0  0  0999 V2000
   -3.5596    2.9626    3.1573 Br  0  0  0  0  0  0  0  0  0  0  0  0
   -2.3485    1.4914    2.6994 C   0  0  0  0  0  0  0  0  0  0  0  0
   -1.1548    1.7629    2.0397 C   0  0  0  0  0  0  0  0  0  0  0  0
   -0.3061    0.7074    1.7209 C   0  0  0  0  0  0  0  0  0  0  0  0
   -0.6365   -0.6023    2.0520 C   0  0  0  0  0  0  0  0  0  0  0  0
   -1.8357   -0.8516    2.7112 C   0  0  0  0  0  0  0  0  0  0  0  0
   -2.6984    0.1889    3.0392 C   0  0  0  0  0  0  0  0  0  0  0  0
    1.0000    1.0000    1.0000 C   0  0  0  0  0  0  0  0  0  0  0  0
    1.8487    1.8487    1.8487 N   0  0  0  0  0  0  0  0  0  0  0  0
    3.0831    1.4052    2.2442 C   0  0  0  0  0  0  0  0  0  0  0  0
    3.4716    0.3240    1.8978 O   0  0  0  0  0  0  0  0  0  0  0  0
    3.9607    2.2828    3.1218 C   0  0  0  0  0  0  0  0  0  0  0  0
    0.7075    1.7208   -0.3059 C   0  0  0  0  0  0  0  0  0  0  0  0
    0.9606    2.8886   -0.4164 O   0  0  0  0  0  0  0  0  0  0  0  0
    0.1416    1.0209   -1.3818 N   0  0  0  0  0  0  0  0  0  0  0  0
   -0.0219    1.7287   -2.6640 C   0  0  0  0  0  0  0  0  0  0  0  0
    1.1735    1.5408   -3.5891 C   0  0  0  0  0  0  0  0  0  0  0  0
    1.1131    2.5454   -4.7283 C   0  0  0  0  0  0  0  0  0  0  0  0
   -0.2088    2.4918   -5.4684 C   0  0  0  0  0  0  0  0  0  0  0  0
    0.5872    2.7512   -6.7285 C   0  0  0  0  0  0  0  0  0  0  0  0
    1.7460    2.0749   -6.0195 C   0  0  0  0  0  0  0  0  0  0  0  0
    1.2685    0.1099   -4.1151 C   0  0  0  0  0  0  0  0  0  0  0  0
    1.2671   -0.9127   -3.1182 O   0  0  0  0  0  0  0  0  0  0  0  0
   -0.0066   -1.1620   -2.5203 C   0  0  0  0  0  0  0  0  0  0  0  0
   -0.2787   -0.3838   -1.2380 C   0  0  0  0  0  0  0  0  0  0  0  0
  1  2  1  0
  2  3  2  0
  3  4  1  0
  4  5  2  0
  5  6  1  0
  6  7  2  0
  7  2  1  0
  4  8  1  0
  8  9  1  0
  9 10  1  0
 10 11  2  0
 10 12  1  0
  8 13  1  0
 13 14  2  0
 13 15  1  0
 15 16  1  0
 16 17  1  0
 17 18  1  0
 18 19  1  0
 19 20  1  0
 20 21  1  0
 21 18  1  0
 17 22  1  0
 22 23  1  0
 23 24  1  0
 24 25  1  0
 25 15  1  0
M  END
$$$$
s_22____10909926____5637262
     RDKit          3D

 26 28  0  0  0  0  0  0  0  0999 V2000
    0.9459    4.3258   -1.3457 F   0  0  0  0  0  0  0  0  0  0  0  0
   -0.1340    4.0813   -0.6089 C   0  0  0  0  0  0  0  0  0  0  0  0
   -0.3186    2.8158   -0.0615 C   0  0  0  0  0  0  0  0  0  0  0  0
   -1.4402    2.5375    0.7127 C   0  0  0  0  0  0  0  0  0  0  0  0
   -2.3783    3.5409    0.9350 C   0  0  0  0  0  0  0  0  0  0  0  0
   -2.1884    4.8042    0.3852 C   0  0  0  0  0  0  0  0  0  0  0  0
   -3.0856    5.7616    0.5985 F   0  0  0  0  0  0  0  0  0  0  0  0
   -1.0691    5.0872   -0.3898 C   0  0  0  0  0  0  0  0  0  0  0  0
    0.7075    1.7208   -0.3059 C   0  0  0  0  0  0  0  0  0  0  0  0
    0.1774    0.7625   -1.2864 N   0  0  0  0  0  0  0  0  0  0  0  0
    0.8400    0.5533   -2.4671 C   0  0  0  0  0  0  0  0  0  0  0  0
    1.8532    1.1524   -2.7009 O   0  0  0  0  0  0  0  0  0  0  0  0
    0.2918   -0.4376   -3.4811 C   0  0  0  0  0  0  0  0  0  0  0  0
    1.0000    1.0000    1.0000 C   0  0  0  0  0  0  0  0  0  0  0  0
    1.8776    1.8776    1.8776 C   0  0  0  0  0  0  0  0  0  0  0  0
    1.9688    3.0524    1.6507 O   0  0  0  0  0  0  0  0  0  0  0  0
    2.5644    1.3273    2.9275 N   0  0  0  0  0  0  0  0  0  0  0  0
    3.4134    2.1763    3.7765 C   0  0  0  0  0  0  0  0  0  0  0  0
    4.8768    1.7721    3.7962 C   0  0  0  0  0  0  0  0  0  0  0  0
    4.8222    2.0546    5.2970 C   0  0  0  0  0  0  0  0  0  0  0  0
    5.5757    1.1349    6.0740 O   0  0  0  0  0  0  0  0  0  0  0  0
    5.4659    1.4750    7.4483 C   0  0  0  0  0  0  0  0  0  0  0  0
    3.3452    1.7259    5.2256 C   0  0  0  0  0  0  0  0  0  0  0  0
    5.8760    2.3755    2.8345 C   0  0  0  0  0  0  0  0  0  0  0  0
    6.6686    1.0816    2.9343 C   0  0  0  0  0  0  0  0  0  0  0  0
    5.3198    0.4513    3.2096 C   0  0  0  0  0  0  0  0  0  0  0  0
  1  2  1  0
  2  3  2  0
  3  4  1  0
  4  5  2  0
  5  6  1  0
  6  7  1  0
  6  8  2  0
  8  2  1  0
  3  9  1  0
  9 10  1  0
 10 11  1  0
 11 12  2  0
 11 13  1  0
  9 14  1  0
 14 15  1  0
 15 16  2  0
 15 17  1  0
 17 18  1  0
 18 19  1  0
 19 20  1  0
 20 21  1  0
 21 22  1  0
 20 23  1  0
 23 18  1  0
 19 24  1  0
 24 25  1  0
 25 26  1  0
 26 19  1  0
M  END
$$$$
s_22____11765390____220032
     RDKit          3D

 24 26  0  0  0  0  0  0  0  0999 V2000
    4.5590    0.9700    2.3261 S   0  0  0  0  0  0  0  0  0  0  0  0
    2.8837    1.0089    2.6188 C   0  0  0  0  0  0  0  0  0  0  0  0
    2.6270    0.1328    3.6270 C   0  0  0  0  0  0  0  0  0  0  0  0
    3.7931   -0.5305    4.0999 C   0  0  0  0  0  0  0  0  0  0  0  0
    4.9683   -0.1980    3.4954 C   0  0  0  0  0  0  0  0  0  0  0  0
    1.8776    1.8776    1.8776 C   0  0  0  0  0  0  0  0  0  0  0  0
    1.0385    2.5935    2.8494 N   0  0  0  0  0  0  0  0  0  0  0  0
    1.0211    3.9634    2.8612 C   0  0  0  0  0  0  0  0  0  0  0  0
    1.6907    4.5788    2.0783 O   0  0  0  0  0  0  0  0  0  0  0  0
    0.1535    4.7037    3.8661 C   0  0  0  0  0  0  0  0  0  0  0  0
    1.0000    1.0000    1.0000 C   0  0  0  0  0  0  0  0  0  0  0  0
    1.8776    0.1224    0.1224 C   0  0  0  0  0  0  0  0  0  0  0  0
    2.9191    0.5450   -0.2979 O   0  0  0  0  0  0  0  0  0  0  0  0
    1.4795   -1.1510   -0.1886 N   0  0  0  0  0  0  0  0  0  0  0  0
    2.3282   -1.9997   -1.0373 C   0  0  0  0  0  0  0  0  0  0  0  0
    3.4496   -2.5959   -0.1986 C   0  0  0  0  0  0  0  0  0  0  0  0
    4.2614   -3.4088   -1.0146 O   0  0  0  0  0  0  0  0  0  0  0  0
    4.8226   -4.4699   -0.2306 C   0  0  0  0  0  0  0  0  0  0  0  0
    4.0983   -4.4224    1.0960 C   0  0  0  0  0  0  0  0  0  0  0  0
    2.8640   -3.6086    0.7593 C   0  0  0  0  0  0  0  0  0  0  0  0
    6.3100   -4.5920    0.0579 C   0  0  0  0  0  0  0  0  0  0  0  0
    6.9261   -5.1384   -1.2146 C   0  0  0  0  0  0  0  0  0  0  0  0
    5.8227   -5.9672   -1.8424 C   0  0  0  0  0  0  0  0  0  0  0  0
    4.6339   -5.8172   -0.9106 C   0  0  0  0  0  0  0  0  0  0  0  0
  1  2  1  0
  2  3  2  0
  3  4  1  0
  4  5  2  0
  5  1  1  0
  2  6  1  0
  6  7  1  0
  7  8  1  0
  8  9  2  0
  8 10  1  0
  6 11  1  0
 11 12  1  0
 12 13  2  0
 12 14  1  0
 14 15  1  0
 15 16  1  0
 16 17  1  0
 17 18  1  0
 18 19  1  0
 19 20  1  0
 20 16  1  0
 18 21  1  0
 21 22  1  0
 22 23  1  0
 23 24  1  0
 24 18  1  0
M  END
$$$$
s_22____2068478____59693
     RDKit          3D

 27 27  0  0  0  0  0  0  0  0999 V2000
    0.0841    4.4987    4.6268 O   0  0  0  0  0  0  0  0  0  0  0  0
    1.2755    4.4837    4.4837 C   0  0  0  0  0  0  0  0  0  0  0  0
    1.8487    3.6038    3.6038 N   0  0  0  0  0  0  0  0  0  0  0  0
    1.0000    2.7551    2.7551 C   0  0  0  0  0  0  0  0  0  0  0  0
    1.8776    1.8776    1.8776 C   0  0  0  0  0  0  0  0  0  0  0  0
    1.0000    1.0000    1.0000 C   0  0  0  0  0  0  0  0  0  0  0  0
    1.8198    0.1802    0.1802 O   0  0  0  0  0  0  0  0  0  0  0  0
    1.0000   -0.6397   -0.6397 C   0  0  0  0  0  0  0  0  0  0  0  0
    1.8776   -1.5172   -1.5172 C   0  0  0  0  0  0  0  0  0  0  0  0
    1.0000   -2.3948   -2.3948 C   0  0  0  0  0  0  0  0  0  0  0  0
    1.8776   -3.2724   -3.2724 C   0  0  0  0  0  0  0  0  0  0  0  0
    1.0000   -4.1500   -4.1500 C   0  0  0  0  0  0  0  0  0  0  0  0
    1.8776   -5.0275   -5.0275 C   0  0  0  0  0  0  0  0  0  0  0  0
    2.7551   -4.1500   -5.9051 C   0  0  0  0  0  0  0  0  0  0  0  0
    3.6327   -5.0275   -6.7827 C   0  0  0  0  0  0  0  0  0  0  0  0
    2.1485    5.4409    5.2787 C   0  0  0  0  0  0  0  0  0  0  0  0
    1.3600    5.9842    6.4592 C   0  0  0  0  0  0  0  0  0  0  0  0
    2.2529    6.7658    7.3267 N   0  0  0  0  0  0  0  0  0  0  0  0
    2.4354    6.3957    8.6331 C   0  0  0  0  0  0  0  0  0  0  0  0
    1.8663    5.4334    9.0691 O   0  0  0  0  0  0  0  0  0  0  0  0
    3.3586    7.2039    9.5302 C   0  0  0  0  0  0  0  0  0  0  0  0
    0.2380    6.8758    5.9519 C   0  0  0  0  0  0  0  0  0  0  0  0
    0.5385    7.9751    5.1544 C   0  0  0  0  0  0  0  0  0  0  0  0
   -0.4911    8.7889    4.6931 C   0  0  0  0  0  0  0  0  0  0  0  0
   -1.8096    8.4999    5.0288 C   0  0  0  0  0  0  0  0  0  0  0  0
   -2.0980    7.3989    5.8258 C   0  0  0  0  0  0  0  0  0  0  0  0
   -1.0773    6.5779    6.2939 C   0  0  0  0  0  0  0  0  0  0  0  0
  1  2  2  0
  2  3  1  0
  3  4  1  0
  4  5  1  0
  5  6  1  0
  6  7  1  0
  7  8  1  0
  8  9  1  0
  9 10  1  0
 10 11  1  0
 11 12  1  0
 12 13  1  0
 13 14  1  0
 14 15  1  0
  2 16  1  0
 16 17  1  0
 17 18  1  0
 18 19  1  0
 19 20  2  0
 19 21  1  0
 17 22  1  0
 22 23  2  0
 23 24  1  0
 24 25  2  0
 25 26  1  0
 26 27  2  0
 27 22  1  0
M  END
$$$$
s_2708____6465958____6547338
     RDKit          3D

 26 27  0  0  0  0  0  0  0  0999 V2000
    0.9150    0.7033   -1.2058 O   0  0  0  0  0  0  0  0  0  0  0  0
    0.3150    0.8418   -0.1759 C   0  0  0  0  0  0  0  0  0  0  0  0
    1.0000    1.0000    1.0000 N   0  0  0  0  0  0  0  0  0  0  0  0
    2.4693    1.0000    1.0000 C   0  0  0  0  0  0  0  0  0  0  0  0
    3.0529   -0.1066    1.8541 C   0  0  0  0  0  0  0  0  0  0  0  0
    4.0937    0.9221    2.2495 C   0  0  0  0  0  0  0  0  0  0  0  0
    4.4593    0.8391    3.6191 O   0  0  0  0  0  0  0  0  0  0  0  0
    5.4334    1.8306    3.9098 C   0  0  0  0  0  0  0  0  0  0  0  0
    5.8248    1.7418    5.3759 C   0  0  0  0  0  0  0  0  0  0  0  0
    6.8675    2.8032    5.6871 C   0  0  0  0  0  0  0  0  0  0  0  0
    7.2589    2.7144    7.1531 C   0  0  0  0  0  0  0  0  0  0  0  0
    3.0430    1.9784    1.9972 C   0  0  0  0  0  0  0  0  0  0  0  0
    3.6273   -1.2561    1.0423 C   0  0  0  0  0  0  0  0  0  0  0  0
    2.1496   -0.5843    2.9814 C   0  0  0  0  0  0  0  0  0  0  0  0
   -1.0550    0.8418   -0.1759 N   0  0  0  0  0  0  0  0  0  0  0  0
   -1.7900    0.6721   -1.4376 C   0  0  0  0  0  0  0  0  0  0  0  0
   -2.9209   -0.3231   -1.2352 C   0  0  0  0  0  0  0  0  0  0  0  0
   -3.5948   -0.5309   -2.4677 O   0  0  0  0  0  0  0  0  0  0  0  0
   -4.6513   -1.4606   -2.2787 C   0  0  0  0  0  0  0  0  0  0  0  0
   -2.3645    2.0102   -1.8732 C   0  0  0  0  0  0  0  0  0  0  0  0
   -2.6632    2.8570   -0.6463 C   0  0  0  0  0  0  0  0  0  0  0  0
   -1.8251    3.9186   -0.3212 C   0  0  0  0  0  0  0  0  0  0  0  0
   -2.1016    4.6903    0.8027 C   0  0  0  0  0  0  0  0  0  0  0  0
   -3.2099    4.3990    1.5911 C   0  0  0  0  0  0  0  0  0  0  0  0
   -4.0403    3.3365    1.2563 C   0  0  0  0  0  0  0  0  0  0  0  0
   -3.7743    2.5569    0.1354 C   0  0  0  0  0  0  0  0  0  0  0  0
  1  2  2  0
  2  3  1  0
  3  4  1  0
  4  5  1  0
  5  6  1  0
  6  7  1  0
  7  8  1  0
  8  9  1  0
  9 10  1  0
 10 11  1  0
  6 12  1  0
 12  4  1  0
  5 13  1  0
  5 14  1  0
  2 15  1  0
 15 16  1  0
 16 17  1  0
 17 18  1  0
 18 19  1  0
 16 20  1  0
 20 21  1  0
 21 22  2  0
 22 23  1  0
 23 24  2  0
 24 25  1  0
 25 26  2  0
 26 21  1  0
M  END
$$$$
s_240690a____15728920____17513472
     RDKit          3D

 25 27  0  0  0  0  0  0  0  0999 V2000
    0.4000    1.0000   -0.0392 O   0  0  0  0  0  0  0  0  0  0  0  0
    1.0000    1.0000    1.0000 C   0  0  0  0  0  0  0  0  0  0  0  0
    0.3150    1.0000    2.1865 N   0  0  0  0  0  0  0  0  0  0  0  0
   -1.1550    1.0000    2.1865 C   0  0  0  0  0  0  0  0  0  0  0  0
   -1.6608   -0.4088    1.9381 C   0  0  0  0  0  0  0  0  0  0  0  0
   -1.2306   -0.9393    0.6988 O   0  0  0  0  0  0  0  0  0  0  0  0
   -1.4192   -2.3379    0.8014 C   0  0  0  0  0  0  0  0  0  0  0  0
   -1.9133   -2.5292    2.2263 C   0  0  0  0  0  0  0  0  0  0  0  0
   -1.7112   -3.8774    2.7732 N   0  0  0  0  0  0  0  0  0  0  0  0
   -1.1944   -1.4210    2.9496 C   0  0  0  0  0  0  0  0  0  0  0  0
   -3.3360   -2.0213    2.3134 C   0  0  0  0  0  0  0  0  0  0  0  0
   -3.1686   -0.5361    2.0524 C   0  0  0  0  0  0  0  0  0  0  0  0
    2.5200    1.0000    1.0000 C   0  0  0  0  0  0  0  0  0  0  0  0
    3.0100    1.0000   -0.3859 N   0  0  0  0  0  0  0  0  0  0  0  0
    3.7976    2.0275   -0.8340 C   0  0  0  0  0  0  0  0  0  0  0  0
    4.0875    2.9275   -0.0951 O   0  0  0  0  0  0  0  0  0  0  0  0
    4.3043    2.0275   -2.2671 C   0  0  0  0  0  0  0  0  0  0  0  0
    3.0267   -0.2411    1.7165 C   0  0  0  0  0  0  0  0  0  0  0  0
    4.5467   -0.2411    1.7165 C   0  0  0  0  0  0  0  0  0  0  0  0
    5.2311    0.3644    2.7653 C   0  0  0  0  0  0  0  0  0  0  0  0
    6.6219    0.3662    2.7699 C   0  0  0  0  0  0  0  0  0  0  0  0
    7.3116   -0.2391    1.7241 C   0  0  0  0  0  0  0  0  0  0  0  0
    8.6614   -0.2393    1.7244 O   0  0  0  0  0  0  0  0  0  0  0  0
    6.6320   -0.8457    0.6727 C   0  0  0  0  0  0  0  0  0  0  0  0
    5.2412   -0.8449    0.6734 C   0  0  0  0  0  0  0  0  0  0  0  0
  1  2  2  0
  2  3  1  0
  3  4  1  0
  4  5  1  0
  5  6  1  0
  6  7  1  0
  7  8  1  0
  8  9  1  0
  8 10  1  0
 10  5  1  0
  8 11  1  0
 11 12  1  0
 12  5  1  0
  2 13  1  0
 13 14  1  0
 14 15  1  0
 15 16  2  0
 15 17  1  0
 13 18  1  0
 18 19  1  0
 19 20  2  0
 20 21  1  0
 21 22  2  0
 22 23  1  0
 22 24  1  0
 24 25  2  0
 25 19  1  0
M  CHG  1   9   1
M  END
$$$$
s_276436a____14760670____17513464
     RDKit          3D

 25 27  0  0  0  0  0  0  0  0999 V2000
    0.4000    1.0000   -0.0392 O   0  0  0  0  0  0  0  0  0  0  0  0
    1.0000    1.0000    1.0000 C   0  0  0  0  0  0  0  0  0  0  0  0
    0.3450    1.0000    2.1345 O   0  0  0  0  0  0  0  0  0  0  0  0
   -1.0750    1.0000    2.1345 C   0  0  0  0  0  0  0  0  0  0  0  0
   -1.5817   -0.4333    2.1345 C   0  0  0  0  0  0  0  0  0  0  0  0
   -1.1514   -1.1760    1.0029 O   0  0  0  0  0  0  0  0  0  0  0  0
   -1.9512   -0.8254   -0.1107 C   0  0  0  0  0  0  0  0  0  0  0  0
   -3.2743   -0.3544    0.4571 C   0  0  0  0  0  0  0  0  0  0  0  0
   -3.0811   -0.5274    1.9499 C   0  0  0  0  0  0  0  0  0  0  0  0
   -1.1329   -1.0881    3.4315 C   0  0  0  0  0  0  0  0  0  0  0  0
   -1.6938   -2.4746    3.5556 C   0  0  0  0  0  0  0  0  0  0  0  0
   -2.2779   -1.3533    4.3662 C   0  0  0  0  0  0  0  0  0  0  0  0
    2.5200    1.0000    1.0000 C   0  0  0  0  0  0  0  0  0  0  0  0
    3.0100    1.0000   -0.3859 N   0  0  0  0  0  0  0  0  0  0  0  0
    3.7976    2.0275   -0.8340 C   0  0  0  0  0  0  0  0  0  0  0  0
    4.0875    2.9275   -0.0951 O   0  0  0  0  0  0  0  0  0  0  0  0
    4.3043    2.0275   -2.2671 C   0  0  0  0  0  0  0  0  0  0  0  0
    3.0267   -0.2411    1.7165 C   0  0  0  0  0  0  0  0  0  0  0  0
    4.5467   -0.2411    1.7165 C   0  0  0  0  0  0  0  0  0  0  0  0
    5.2311    0.3644    2.7653 C   0  0  0  0  0  0  0  0  0  0  0  0
    6.6219    0.3662    2.7699 C   0  0  0  0  0  0  0  0  0  0  0  0
    7.3116   -0.2391    1.7241 C   0  0  0  0  0  0  0  0  0  0  0  0
    8.6614   -0.2393    1.7244 O   0  0  0  0  0  0  0  0  0  0  0  0
    6.6320   -0.8457    0.6727 C   0  0  0  0  0  0  0  0  0  0  0  0
    5.2412   -0.8449    0.6734 C   0  0  0  0  0  0  0  0  0  0  0  0
  1  2  2  0
  2  3  1  0
  3  4  1  0
  4  5  1  0
  5  6  1  0
  6  7  1  0
  7  8  1  0
  8  9  1  0
  9  5  1  0
  5 10  1  0
 10 11  1  0
 11 12  1  0
 12 10  1  0
  2 13  1  0
 13 14  1  0
 14 15  1  0
 15 16  2  0
 15 17  1  0
 13 18  1  0
 18 19  1  0
 19 20  2  0
 20 21  1  0
 21 22  2  0
 22 23  1  0
 22 24  1  0
 24 25  2  0
 25 19  1  0
M  END
$$$$
s_22____13654870____17057108
     RDKit          3D

 28 30  0  0  0  0  0  0  0  0999 V2000
    3.1767   -1.1482    0.3215 O   0  0  0  0  0  0  0  0  0  0  0  0
    2.9767   -0.0133   -0.0133 C   0  0  0  0  0  0  0  0  0  0  0  0
    3.2050    0.3690   -1.3090 N   0  0  0  0  0  0  0  0  0  0  0  0
    3.2623   -0.6422   -2.3744 C   0  0  0  0  0  0  0  0  0  0  0  0
    1.9349   -0.6750   -3.1137 C   0  0  0  0  0  0  0  0  0  0  0  0
    1.4368    0.6411   -3.2910 O   0  0  0  0  0  0  0  0  0  0  0  0
    0.6066    0.6663   -4.4418 C   0  0  0  0  0  0  0  0  0  0  0  0
    0.7188   -0.7400   -5.0116 C   0  0  0  0  0  0  0  0  0  0  0  0
    2.1262   -1.0483   -4.5628 C   0  0  0  0  0  0  0  0  0  0  0  0
   -0.3614   -1.6716   -4.4820 C   0  0  0  0  0  0  0  0  0  0  0  0
   -0.4093   -1.6383   -2.9619 C   0  0  0  0  0  0  0  0  0  0  0  0
    0.9857   -1.5986   -2.3571 C   0  0  0  0  0  0  0  0  0  0  0  0
    2.4700    1.0000    1.0000 C   0  0  0  0  0  0  0  0  0  0  0  0
    1.0000    1.0000    1.0000 N   0  0  0  0  0  0  0  0  0  0  0  0
    0.3150    1.0000    2.1865 C   0  0  0  0  0  0  0  0  0  0  0  0
    0.9150    1.0000    3.2257 O   0  0  0  0  0  0  0  0  0  0  0  0
   -1.2050    1.0000    2.1865 C   0  0  0  0  0  0  0  0  0  0  0  0
   -1.7117   -0.4331    2.1865 C   0  0  0  0  0  0  0  0  0  0  0  0
   -3.2317   -0.4331    2.1865 C   0  0  0  0  0  0  0  0  0  0  0  0
   -1.2050   -1.1496    0.9454 C   0  0  0  0  0  0  0  0  0  0  0  0
    2.9767    2.3842    0.6291 C   0  0  0  0  0  0  0  0  0  0  0  0
    4.4967    2.3842    0.6291 C   0  0  0  0  0  0  0  0  0  0  0  0
    5.1811    2.6977   -0.5406 C   0  0  0  0  0  0  0  0  0  0  0  0
    6.5719    2.6997   -0.5452 C   0  0  0  0  0  0  0  0  0  0  0  0
    7.2616    2.3881    0.6223 C   0  0  0  0  0  0  0  0  0  0  0  0
    8.6114    2.3886    0.6223 O   0  0  0  0  0  0  0  0  0  0  0  0
    6.5820    2.0736    1.7948 C   0  0  0  0  0  0  0  0  0  0  0  0
    5.1912    2.0736    1.7937 C   0  0  0  0  0  0  0  0  0  0  0  0
  1  2  2  0
  2  3  1  0
  3  4  1  0
  4  5  1  0
  5  6  1  0
  6  7  1  0
  7  8  1  0
  8  9  1  0
  9  5  1  0
  8 10  1  0
 10 11  1  0
 11 12  1  0
 12  5  1  0
  2 13  1  0
 13 14  1  0
 14 15  1  0
 15 16  2  0
 15 17  1  0
 17 18  1  0
 18 19  1  0
 18 20  1  0
 13 21  1  0
 21 22  1  0
 22 23  2  0
 23 24  1  0
 24 25  2  0
 25 26  1  0
 25 27  1  0
 27 28  2  0
 28 22  1  0
M  END
$$$$
s_22____16503052____17513450
     RDKit          3D

 27 28  0  0  0  0  0  0  0  0999 V2000
    2.7933   -1.0640    2.1558 F   0  0  0  0  0  0  0  0  0  0  0  0
    2.9763   -0.4320    1.0000 C   0  0  0  0  0  0  0  0  0  0  0  0
    2.5487   -1.2687   -0.1813 C   0  0  0  0  0  0  0  0  0  0  0  0
    3.7312   -0.7427   -0.8465 N   0  0  0  0  0  0  0  0  0  0  0  0
    4.0802   -0.4976   -2.1484 C   0  0  0  0  0  0  0  0  0  0  0  0
    3.3044   -0.7355   -3.0325 O   0  0  0  0  0  0  0  0  0  0  0  0
    5.4500    0.0755   -2.4731 C   0  0  0  0  0  0  0  0  0  0  0  0
    6.4364   -1.0606   -2.6891 C   0  0  0  0  0  0  0  0  0  0  0  0
    5.3610    0.9163   -3.7362 C   0  0  0  0  0  0  0  0  0  0  0  0
    4.3763   -0.6047    0.4586 C   0  0  0  0  0  0  0  0  0  0  0  0
    2.4700    1.0000    1.0000 C   0  0  0  0  0  0  0  0  0  0  0  0
    1.0000    1.0000    1.0000 N   0  0  0  0  0  0  0  0  0  0  0  0
    0.3150    1.0000    2.1865 C   0  0  0  0  0  0  0  0  0  0  0  0
    0.9150    1.0000    3.2257 O   0  0  0  0  0  0  0  0  0  0  0  0
   -1.2050    1.0000    2.1865 C   0  0  0  0  0  0  0  0  0  0  0  0
   -1.6950    1.6930    3.3867 N   0  0  0  0  0  0  0  0  0  0  0  0
   -1.9233    3.0434    3.3528 C   0  0  0  0  0  0  0  0  0  0  0  0
   -1.7233    3.6605    2.3433 O   0  0  0  0  0  0  0  0  0  0  0  0
   -2.4300    3.7599    4.5939 C   0  0  0  0  0  0  0  0  0  0  0  0
   -1.7117   -0.4331    2.1865 C   0  0  0  0  0  0  0  0  0  0  0  0
   -3.2317   -0.4331    2.1865 C   0  0  0  0  0  0  0  0  0  0  0  0
   -3.9161   -0.4331    0.9755 C   0  0  0  0  0  0  0  0  0  0  0  0
   -5.3069   -0.4338    0.9706 C   0  0  0  0  0  0  0  0  0  0  0  0
   -5.9966   -0.4351    2.1789 C   0  0  0  0  0  0  0  0  0  0  0  0
   -7.4166   -0.4355    2.1788 O   0  0  0  0  0  0  0  0  0  0  0  0
   -5.3170   -0.4347    3.3928 C   0  0  0  0  0  0  0  0  0  0  0  0
   -3.9262   -0.4344    3.3918 C   0  0  0  0  0  0  0  0  0  0  0  0
  1  2  1  0
  2  3  1  0
  3  4  1  0
  4  5  1  0
  5  6  2  0
  5  7  1  0
  7  8  1  0
  7  9  1  0
  4 10  1  0
 10  2  1  0
  2 11  1  0
 11 12  1  0
 12 13  1  0
 13 14  2  0
 13 15  1  0
 15 16  1  0
 16 17  1  0
 17 18  2  0
 17 19  1  0
 15 20  1  0
 20 21  1  0
 21 22  2  0
 22 23  1  0
 23 24  2  0
 24 25  1  0
 24 26  1  0
 26 27  2  0
 27 21  1  0
M  END
$$$$
s_22____6465634____17513450
     RDKit          3D

 28 29  0  0  0  0  0  0  0  0999 V2000
    4.2996    1.2619    5.0749 O   0  0  0  0  0  0  0  0  0  0  0  0
    4.5283    2.0203    4.1736 C   0  0  0  0  0  0  0  0  0  0  0  0
    3.8218    1.9089    2.9670 N   0  0  0  0  0  0  0  0  0  0  0  0
    2.7173    0.9895    2.7086 C   0  0  0  0  0  0  0  0  0  0  0  0
    1.8194    1.8194    1.8194 C   0  0  0  0  0  0  0  0  0  0  0  0
    1.0000    1.0000    1.0000 O   0  0  0  0  0  0  0  0  0  0  0  0
    0.1434    0.2177    1.8190 C   0  0  0  0  0  0  0  0  0  0  0  0
   -0.7341   -0.6598    0.9414 C   0  0  0  0  0  0  0  0  0  0  0  0
   -1.6208   -1.4697    1.7893 N   0  0  0  0  0  0  0  0  0  0  0  0
   -2.4687   -0.5829    2.5991 C   0  0  0  0  0  0  0  0  0  0  0  0
   -3.3856   -1.4203    3.4757 C   0  0  0  0  0  0  0  0  0  0  0  0
   -2.4696   -2.3184    0.9406 C   0  0  0  0  0  0  0  0  0  0  0  0
   -1.5929   -3.2353    0.1032 C   0  0  0  0  0  0  0  0  0  0  0  0
    2.7623    2.6550    0.9758 C   0  0  0  0  0  0  0  0  0  0  0  0
    4.0716    2.6922    1.7521 C   0  0  0  0  0  0  0  0  0  0  0  0
    5.5834    3.1018    4.3394 C   0  0  0  0  0  0  0  0  0  0  0  0
    6.3772    2.8309    5.5466 N   0  0  0  0  0  0  0  0  0  0  0  0
    7.7293    2.6338    5.4475 C   0  0  0  0  0  0  0  0  0  0  0  0
    8.2657    2.6824    4.3751 O   0  0  0  0  0  0  0  0  0  0  0  0
    8.5501    2.3537    6.6958 C   0  0  0  0  0  0  0  0  0  0  0  0
    4.9050    4.4555    4.4722 C   0  0  0  0  0  0  0  0  0  0  0  0
    5.8830    5.5526    4.0845 C   0  0  0  0  0  0  0  0  0  0  0  0
    5.9505    5.9725    2.7601 C   0  0  0  0  0  0  0  0  0  0  0  0
    6.8433    6.9766    2.4008 C   0  0  0  0  0  0  0  0  0  0  0  0
    7.6583    7.5491    3.3723 C   0  0  0  0  0  0  0  0  0  0  0  0
    8.5264    8.5236    3.0279 O   0  0  0  0  0  0  0  0  0  0  0  0
    7.5950    7.1326    4.6982 C   0  0  0  0  0  0  0  0  0  0  0  0
    6.7001    6.1284    5.0519 C   0  0  0  0  0  0  0  0  0  0  0  0
  1  2  2  0
  2  3  1  0
  3  4  1  0
  4  5  1  0
  5  6  1  0
  6  7  1  0
  7  8  1  0
  8  9  1  0
  9 10  1  0
 10 11  1  0
  9 12  1  0
 12 13  1  0
  5 14  1  0
 14 15  1  0
 15  3  1  0
  2 16  1  0
 16 17  1  0
 17 18  1  0
 18 19  2  0
 18 20  1  0
 16 21  1  0
 21 22  1  0
 22 23  2  0
 23 24  1  0
 24 25  2  0
 25 26  1  0
 25 27  1  0
 27 28  2  0
 28 22  1  0
M  CHG  1   9   1
M  END
$$$$
s_22____12139182____14260948
     RDKit          3D

 30 31  0  0  0  0  0  0  0  0999 V2000
    3.0443   -3.8146   -1.1201 F   0  0  0  0  0  0  0  0  0  0  0  0
    2.5671   -2.6173   -1.4467 C   0  0  0  0  0  0  0  0  0  0  0  0
    3.0325   -1.4831   -0.7907 C   0  0  0  0  0  0  0  0  0  0  0  0
    2.5202   -0.2406   -1.1493 C   0  0  0  0  0  0  0  0  0  0  0  0
    1.5579   -0.1205   -2.1469 C   0  0  0  0  0  0  0  0  0  0  0  0
    1.1011   -1.2625   -2.7967 C   0  0  0  0  0  0  0  0  0  0  0  0
    1.6051   -2.5112   -2.4460 C   0  0  0  0  0  0  0  0  0  0  0  0
    3.0267    1.0000   -0.4331 C   0  0  0  0  0  0  0  0  0  0  0  0
    4.4967    1.0000   -0.4331 N   0  0  0  0  0  0  0  0  0  0  0  0
    5.1817    2.0275   -1.0263 C   0  0  0  0  0  0  0  0  0  0  0  0
    4.5817    2.9275   -1.5459 O   0  0  0  0  0  0  0  0  0  0  0  0
    6.4917    2.0275   -1.0263 O   0  0  0  0  0  0  0  0  0  0  0  0
    7.2017    3.0925   -1.6412 C   0  0  0  0  0  0  0  0  0  0  0  0
    6.8345    4.4033   -0.9649 C   0  0  0  0  0  0  0  0  0  0  0  0
    8.6961    2.8520   -1.5023 C   0  0  0  0  0  0  0  0  0  0  0  0
    6.8345    3.1622   -3.1145 C   0  0  0  0  0  0  0  0  0  0  0  0
    2.5200    1.0000    1.0000 C   0  0  0  0  0  0  0  0  0  0  0  0
    1.0000    1.0000    1.0000 C   0  0  0  0  0  0  0  0  0  0  0  0
    0.4000    1.0000   -0.0392 O   0  0  0  0  0  0  0  0  0  0  0  0
    0.2987    1.0000    2.2147 N   0  0  0  0  0  0  0  0  0  0  0  0
   -1.1543    1.0000    2.3592 C   0  0  0  0  0  0  0  0  0  0  0  0
   -1.3488    0.1244    3.5762 C   0  0  0  0  0  0  0  0  0  0  0  0
   -2.5702    0.4180    4.2367 O   0  0  0  0  0  0  0  0  0  0  0  0
   -2.7102   -0.4259    5.3701 C   0  0  0  0  0  0  0  0  0  0  0  0
   -3.4314   -1.7015    4.9662 C   0  0  0  0  0  0  0  0  0  0  0  0
   -3.5812   -2.6047    6.1795 C   0  0  0  0  0  0  0  0  0  0  0  0
   -2.2058   -2.9516    6.7258 C   0  0  0  0  0  0  0  0  0  0  0  0
   -4.3851   -1.8855    7.2504 C   0  0  0  0  0  0  0  0  0  0  0  0
   -0.1642    0.4261    4.4732 C   0  0  0  0  0  0  0  0  0  0  0  0
    0.9012    1.0052    3.5522 C   0  0  0  0  0  0  0  0  0  0  0  0
  1  2  1  0
  2  3  2  0
  3  4  1  0
  4  5  2  0
  5  6  1  0
  6  7  2  0
  7  2  1  0
  4  8  1  0
  8  9  1  0
  9 10  1  0
 10 11  2  0
 10 12  1  0
 12 13  1  0
 13 14  1  0
 13 15  1  0
 13 16  1  0
  8 17  1  0
 17 18  1  0
 18 19  2  0
 18 20  1  0
 20 21  1  0
 21 22  1  0
 22 23  1  0
 23 24  1  0
 24 25  1  0
 25 26  1  0
 26 27  1  0
 26 28  1  0
 22 29  1  0
 29 30  1  0
 30 20  1  0
M  END
$$$$
s_22____15101746____107332
     RDKit          3D

 25 27  0  0  0  0  0  0  0  0999 V2000
   -2.7942    6.5503    0.7877 Cl  0  0  0  0  0  0  0  0  0  0  0  0
   -1.7679    5.1320    0.4668 C   0  0  0  0  0  0  0  0  0  0  0  0
   -2.2011    3.8654    0.8430 C   0  0  0  0  0  0  0  0  0  0  0  0
   -1.4017    2.7542    0.5947 C   0  0  0  0  0  0  0  0  0  0  0  0
   -0.1722    2.9289   -0.0315 C   0  0  0  0  0  0  0  0  0  0  0  0
    0.2615    4.1952   -0.4077 C   0  0  0  0  0  0  0  0  0  0  0  0
   -0.5380    5.3067   -0.1593 C   0  0  0  0  0  0  0  0  0  0  0  0
    0.7075    1.7208   -0.3059 C   0  0  0  0  0  0  0  0  0  0  0  0
    0.0129    0.8075   -1.2248 N   0  0  0  0  0  0  0  0  0  0  0  0
    0.5721    0.4993   -2.4369 C   0  0  0  0  0  0  0  0  0  0  0  0
    1.6288    0.9750   -2.7485 O   0  0  0  0  0  0  0  0  0  0  0  0
   -0.1461   -0.4450   -3.3871 C   0  0  0  0  0  0  0  0  0  0  0  0
    1.0000    1.0000    1.0000 C   0  0  0  0  0  0  0  0  0  0  0  0
    1.8776    1.8776    1.8776 C   0  0  0  0  0  0  0  0  0  0  0  0
    1.9688    3.0524    1.6507 O   0  0  0  0  0  0  0  0  0  0  0  0
    2.5644    1.3273    2.9275 N   0  0  0  0  0  0  0  0  0  0  0  0
    3.4119    2.1748    3.7751 C   0  0  0  0  0  0  0  0  0  0  0  0
    2.9933    2.1804    5.2255 C   0  0  0  0  0  0  0  0  0  0  0  0
    2.3344    3.3871    5.5650 O   0  0  0  0  0  0  0  0  0  0  0  0
    1.0189    3.0977    6.0143 C   0  0  0  0  0  0  0  0  0  0  0  0
    4.4702    2.1780    5.5614 C   0  0  0  0  0  0  0  0  0  0  0  0
    4.6694    1.4730    4.2418 C   0  0  0  0  0  0  0  0  0  0  0  0
    6.1002    1.8416    3.8800 C   0  0  0  0  0  0  0  0  0  0  0  0
    6.4703    3.1075    4.6330 C   0  0  0  0  0  0  0  0  0  0  0  0
    5.2691    3.4634    5.4948 C   0  0  0  0  0  0  0  0  0  0  0  0
  1  2  1  0
  2  3  2  0
  3  4  1  0
  4  5  2  0
  5  6  1  0
  6  7  2  0
  7  2  1  0
  5  8  1  0
  8  9  1  0
  9 10  1  0
 10 11  2  0
 10 12  1  0
  8 13  1  0
 13 14  1  0
 14 15  2  0
 14 16  1  0
 16 17  1  0
 17 18  1  0
 18 19  1  0
 19 20  1  0
 18 21  1  0
 21 22  1  0
 22 17  1  0
 22 23  1  0
 23 24  1  0
 24 25  1  0
 25 21  1  0
M  END
$$$$
s_22____16501214____17513450
     RDKit          3D

 25 27  0  0  0  0  0  0  0  0999 V2000
    0.4000    1.0000   -0.0392 O   0  0  0  0  0  0  0  0  0  0  0  0
    1.0000    1.0000    1.0000 C   0  0  0  0  0  0  0  0  0  0  0  0
    0.3150    1.0000    2.1865 N   0  0  0  0  0  0  0  0  0  0  0  0
   -1.1550    1.0000    2.1865 C   0  0  0  0  0  0  0  0  0  0  0  0
   -1.6610   -0.4094    1.9379 C   0  0  0  0  0  0  0  0  0  0  0  0
   -3.1701   -0.5740    1.9089 C   0  0  0  0  0  0  0  0  0  0  0  0
   -2.9334   -1.8777    2.6701 C   0  0  0  0  0  0  0  0  0  0  0  0
   -3.9115   -2.1368    3.6669 O   0  0  0  0  0  0  0  0  0  0  0  0
   -1.6680   -1.2424    3.2080 C   0  0  0  0  0  0  0  0  0  0  0  0
   -3.9490   -0.4253    0.6228 C   0  0  0  0  0  0  0  0  0  0  0  0
   -5.1305    0.0482    1.4376 C   0  0  0  0  0  0  0  0  0  0  0  0
   -4.0784    0.5282    2.4005 C   0  0  0  0  0  0  0  0  0  0  0  0
    2.5200    1.0000    1.0000 C   0  0  0  0  0  0  0  0  0  0  0  0
    3.0100    1.0000   -0.3859 N   0  0  0  0  0  0  0  0  0  0  0  0
    3.7976    2.0275   -0.8340 C   0  0  0  0  0  0  0  0  0  0  0  0
    4.0875    2.9275   -0.0951 O   0  0  0  0  0  0  0  0  0  0  0  0
    4.3043    2.0275   -2.2671 C   0  0  0  0  0  0  0  0  0  0  0  0
    3.0267   -0.2411    1.7165 C   0  0  0  0  0  0  0  0  0  0  0  0
    4.5467   -0.2411    1.7165 C   0  0  0  0  0  0  0  0  0  0  0  0
    5.2311    0.3644    2.7653 C   0  0  0  0  0  0  0  0  0  0  0  0
    6.6219    0.3662    2.7699 C   0  0  0  0  0  0  0  0  0  0  0  0
    7.3116   -0.2391    1.7241 C   0  0  0  0  0  0  0  0  0  0  0  0
    8.6614   -0.2393    1.7244 O   0  0  0  0  0  0  0  0  0  0  0  0
    6.6320   -0.8457    0.6727 C   0  0  0  0  0  0  0  0  0  0  0  0
    5.2412   -0.8449    0.6734 C   0  0  0  0  0  0  0  0  0  0  0  0
  1  2  2  0
  2  3  1  0
  3  4  1  0
  4  5  1  0
  5  6  1  0
  6  7  1  0
  7  8  1  0
  7  9  1  0
  9  5  1  0
  6 10  1  0
 10 11  1  0
 11 12  1  0
 12  6  1  0
  2 13  1  0
 13 14  1  0
 14 15  1  0
 15 16  2  0
 15 17  1  0
 13 18  1  0
 18 19  1  0
 19 20  2  0
 20 21  1  0
 21 22  2  0
 22 23  1  0
 22 24  1  0
 24 25  2  0
 25 19  1  0
M  END
$$$$
s_22____14786974____17513450
     RDKit          3D

 27 29  0  0  0  0  0  0  0  0999 V2000
   -0.1329    2.5602    4.8475 O   0  0  0  0  0  0  0  0  0  0  0  0
   -1.2167    2.1933    4.4279 C   0  0  0  0  0  0  0  0  0  0  0  0
   -2.4967    2.7219    4.5191 N   0  0  0  0  0  0  0  0  0  0  0  0
   -3.0731    3.9259    5.1431 C   0  0  0  0  0  0  0  0  0  0  0  0
   -3.7507    4.8256    4.1284 C   0  0  0  0  0  0  0  0  0  0  0  0
   -3.2192    5.9889    4.9366 C   0  0  0  0  0  0  0  0  0  0  0  0
   -2.0936    5.0599    5.3522 C   0  0  0  0  0  0  0  0  0  0  0  0
   -3.0399    1.6026    3.7611 C   0  0  0  0  0  0  0  0  0  0  0  0
   -1.6620    1.0000    3.6203 C   0  0  0  0  0  0  0  0  0  0  0  0
   -1.1550    1.0000    2.1865 C   0  0  0  0  0  0  0  0  0  0  0  0
    0.3150    1.0000    2.1865 N   0  0  0  0  0  0  0  0  0  0  0  0
    1.0000    1.0000    1.0000 C   0  0  0  0  0  0  0  0  0  0  0  0
    0.4000    1.0000   -0.0392 O   0  0  0  0  0  0  0  0  0  0  0  0
    2.5200    1.0000    1.0000 C   0  0  0  0  0  0  0  0  0  0  0  0
    3.0100    1.0000   -0.3859 N   0  0  0  0  0  0  0  0  0  0  0  0
    3.7976    2.0275   -0.8340 C   0  0  0  0  0  0  0  0  0  0  0  0
    4.0875    2.9275   -0.0951 O   0  0  0  0  0  0  0  0  0  0  0  0
    4.3043    2.0275   -2.2671 C   0  0  0  0  0  0  0  0  0  0  0  0
    3.0267   -0.2411    1.7165 C   0  0  0  0  0  0  0  0  0  0  0  0
    4.5467   -0.2411    1.7165 C   0  0  0  0  0  0  0  0  0  0  0  0
    5.2311    0.3644    2.7653 C   0  0  0  0  0  0  0  0  0  0  0  0
    6.6219    0.3662    2.7699 C   0  0  0  0  0  0  0  0  0  0  0  0
    7.3116   -0.2391    1.7241 C   0  0  0  0  0  0  0  0  0  0  0  0
    8.6614   -0.2393    1.7244 O   0  0  0  0  0  0  0  0  0  0  0  0
    6.6320   -0.8457    0.6727 C   0  0  0  0  0  0  0  0  0  0  0  0
    5.2412   -0.8449    0.6734 C   0  0  0  0  0  0  0  0  0  0  0  0
   -1.5262   -0.3257    4.3507 C   0  0  0  0  0  0  0  0  0  0  0  0
  1  2  2  0
  2  3  1  0
  3  4  1  0
  4  5  1  0
  5  6  1  0
  6  7  1  0
  7  4  1  0
  3  8  1  0
  8  9  1  0
  9  2  1  0
  9 10  1  0
 10 11  1  0
 11 12  1  0
 12 13  2  0
 12 14  1  0
 14 15  1  0
 15 16  1  0
 16 17  2  0
 16 18  1  0
 14 19  1  0
 19 20  1  0
 20 21  2  0
 21 22  1  0
 22 23  2  0
 23 24  1  0
 23 25  1  0
 25 26  2  0
 26 20  1  0
  9 27  1  0
M  END
$$$$
s_22____17317796____59693
     RDKit          3D

 26 27  0  0  0  0  0  0  0  0999 V2000
   -1.1370    1.6559    7.3803 F   0  0  0  0  0  0  0  0  0  0  0  0
   -1.7368    0.5867    6.8645 C   0  0  0  0  0  0  0  0  0  0  0  0
   -2.7017    0.9762    6.0362 F   0  0  0  0  0  0  0  0  0  0  0  0
   -2.2617   -0.1432    7.8446 F   0  0  0  0  0  0  0  0  0  0  0  0
   -0.7166   -0.2486    6.0992 C   0  0  0  0  0  0  0  0  0  0  0  0
   -0.6152   -1.5675    6.6091 O   0  0  0  0  0  0  0  0  0  0  0  0
    0.3470   -2.2927    5.8576 C   0  0  0  0  0  0  0  0  0  0  0  0
   -0.8398   -0.2195    4.5864 C   0  0  0  0  0  0  0  0  0  0  0  0
    0.0618    1.0000    4.6154 C   0  0  0  0  0  0  0  0  0  0  0  0
    1.0500    1.0000    3.4595 C   0  0  0  0  0  0  0  0  0  0  0  0
    0.3150    1.0000    2.1865 N   0  0  0  0  0  0  0  0  0  0  0  0
    1.0000    1.0000    1.0000 C   0  0  0  0  0  0  0  0  0  0  0  0
    0.4000    1.0000   -0.0392 O   0  0  0  0  0  0  0  0  0  0  0  0
    2.5200    1.0000    1.0000 C   0  0  0  0  0  0  0  0  0  0  0  0
    3.0267    0.5691   -0.3667 C   0  0  0  0  0  0  0  0  0  0  0  0
    4.3972    1.0643   -0.5598 N   0  0  0  0  0  0  0  0  0  0  0  0
    4.6793    1.9120   -1.5984 C   0  0  0  0  0  0  0  0  0  0  0  0
    3.8076    2.2502   -2.3506 O   0  0  0  0  0  0  0  0  0  0  0  0
    6.0965    2.4241   -1.7980 C   0  0  0  0  0  0  0  0  0  0  0  0
    3.0192   -0.9487   -0.4546 C   0  0  0  0  0  0  0  0  0  0  0  0
    3.7378   -1.6961    0.4728 C   0  0  0  0  0  0  0  0  0  0  0  0
    3.7289   -3.0846    0.3883 C   0  0  0  0  0  0  0  0  0  0  0  0
    3.0041   -3.7156   -0.6172 C   0  0  0  0  0  0  0  0  0  0  0  0
    2.2896   -2.9588   -1.5378 C   0  0  0  0  0  0  0  0  0  0  0  0
    2.2910   -1.5698   -1.4644 C   0  0  0  0  0  0  0  0  0  0  0  0
    0.6318    0.4062    5.8876 C   0  0  0  0  0  0  0  0  0  0  0  0
  1  2  1  0
  2  3  1  0
  2  4  1  0
  2  5  1  0
  5  6  1  0
  6  7  1  0
  5  8  1  0
  8  9  1  0
  9 10  1  0
 10 11  1  0
 11 12  1  0
 12 13  2  0
 12 14  1  0
 14 15  1  0
 15 16  1  0
 16 17  1  0
 17 18  2  0
 17 19  1  0
 15 20  1  0
 20 21  2  0
 21 22  1  0
 22 23  2  0
 23 24  1  0
 24 25  2  0
 25 20  1  0
  9 26  1  0
 26  5  1  0
M  END
$$$$
s_22____15094274____107338
     RDKit          3D

 26 28  0  0  0  0  0  0  0  0999 V2000
    3.0725    1.7997    1.7997 O   0  0  0  0  0  0  0  0  0  0  0  0
    1.8776    1.8776    1.8776 C   0  0  0  0  0  0  0  0  0  0  0  0
    1.2916    2.7770    2.7770 N   0  0  0  0  0  0  0  0  0  0  0  0
    1.9451    3.9412    3.3683 C   0  0  0  0  0  0  0  0  0  0  0  0
    1.1676    4.1818    4.6483 C   0  0  0  0  0  0  0  0  0  0  0  0
    1.3257    5.5180    5.0961 O   0  0  0  0  0  0  0  0  0  0  0  0
    0.4028    6.3570    4.4174 C   0  0  0  0  0  0  0  0  0  0  0  0
    0.5724    7.7898    4.8975 C   0  0  0  0  0  0  0  0  0  0  0  0
    1.9628    8.2861    4.6276 C   0  0  0  0  0  0  0  0  0  0  0  0
    1.5598    7.9045    6.0230 C   0  0  0  0  0  0  0  0  0  0  0  0
   -0.2466    3.8961    4.1813 C   0  0  0  0  0  0  0  0  0  0  0  0
   -0.0796    2.6901    3.2796 C   0  0  0  0  0  0  0  0  0  0  0  0
    1.0000    1.0000    1.0000 C   0  0  0  0  0  0  0  0  0  0  0  0
    0.7075    1.7208   -0.3059 C   0  0  0  0  0  0  0  0  0  0  0  0
   -0.5184    2.5190   -0.1610 N   0  0  0  0  0  0  0  0  0  0  0  0
   -0.4439    3.8164    0.2726 C   0  0  0  0  0  0  0  0  0  0  0  0
    0.6114    4.3877    0.2774 O   0  0  0  0  0  0  0  0  0  0  0  0
   -1.6978    4.5321    0.7478 C   0  0  0  0  0  0  0  0  0  0  0  0
    0.5195    0.7004   -1.4167 C   0  0  0  0  0  0  0  0  0  0  0  0
   -0.7511    0.1969   -1.6756 C   0  0  0  0  0  0  0  0  0  0  0  0
   -0.9280   -0.7364   -2.6916 C   0  0  0  0  0  0  0  0  0  0  0  0
    0.1698   -1.1543   -3.4372 C   0  0  0  0  0  0  0  0  0  0  0  0
   -0.0061   -2.1072   -4.4752 O   0  0  0  0  0  0  0  0  0  0  0  0
    1.1100   -2.5381   -5.2400 C   0  0  0  0  0  0  0  0  0  0  0  0
    1.4426   -0.6541   -3.1821 C   0  0  0  0  0  0  0  0  0  0  0  0
    1.6137    0.2792   -2.1653 C   0  0  0  0  0  0  0  0  0  0  0  0
  1  2  2  0
  2  3  1  0
  3  4  1  0
  4  5  1  0
  5  6  1  0
  6  7  1  0
  7  8  1  0
  8  9  1  0
  9 10  1  0
 10  8  1  0
  5 11  1  0
 11 12  1  0
 12  3  1  0
  2 13  1  0
 13 14  1  0
 14 15  1  0
 15 16  1  0
 16 17  2  0
 16 18  1  0
 14 19  1  0
 19 20  2  0
 20 21  1  0
 21 22  2  0
 22 23  1  0
 23 24  1  0
 22 25  1  0
 25 26  2  0
 26 19  1  0
M  END
$$$$
s_22____9399000____16717358
     RDKit          3D

 29 30  0  0  0  0  0  0  0  0999 V2000
    0.4000    1.0000   -0.0392 O   0  0  0  0  0  0  0  0  0  0  0  0
    1.0000    1.0000    1.0000 C   0  0  0  0  0  0  0  0  0  0  0  0
    0.3150    1.0000    2.1865 N   0  0  0  0  0  0  0  0  0  0  0  0
   -1.1550    1.0000    2.1865 C   0  0  0  0  0  0  0  0  0  0  0  0
   -1.6632    1.0000    3.6238 C   0  0  0  0  0  0  0  0  0  0  0  0
   -1.2224   -0.1371    4.3466 O   0  0  0  0  0  0  0  0  0  0  0  0
   -1.4626    2.2916    4.3959 C   0  0  0  0  0  0  0  0  0  0  0  0
   -2.8003    2.7399    3.8387 C   0  0  0  0  0  0  0  0  0  0  0  0
   -3.5580    3.4577    4.8027 O   0  0  0  0  0  0  0  0  0  0  0  0
   -2.8352    4.6101    5.2103 C   0  0  0  0  0  0  0  0  0  0  0  0
   -3.6457    5.3780    6.2417 C   0  0  0  0  0  0  0  0  0  0  0  0
   -3.1444    1.2651    3.7893 C   0  0  0  0  0  0  0  0  0  0  0  0
    2.5200    1.0000    1.0000 C   0  0  0  0  0  0  0  0  0  0  0  0
    3.0100    0.1091    2.0617 N   0  0  0  0  0  0  0  0  0  0  0  0
    3.7976    0.6082    3.0654 C   0  0  0  0  0  0  0  0  0  0  0  0
    4.0875    1.7726    3.0779 O   0  0  0  0  0  0  0  0  0  0  0  0
    4.3043   -0.3129    4.1632 C   0  0  0  0  0  0  0  0  0  0  0  0
    5.1210    0.4580    5.1116 N   0  0  0  0  0  0  0  0  0  0  0  0
    4.5151    1.2187    6.0767 C   0  0  0  0  0  0  0  0  0  0  0  0
    3.3178    1.2555    6.1477 O   0  0  0  0  0  0  0  0  0  0  0  0
    5.3596    2.0159    7.0574 C   0  0  0  0  0  0  0  0  0  0  0  0
    3.0267    0.5099   -0.3466 C   0  0  0  0  0  0  0  0  0  0  0  0
    4.5467    0.5099   -0.3466 C   0  0  0  0  0  0  0  0  0  0  0  0
    5.2311   -0.6281    0.0675 C   0  0  0  0  0  0  0  0  0  0  0  0
    6.6219   -0.6330    0.0685 C   0  0  0  0  0  0  0  0  0  0  0  0
    7.3116    0.5021   -0.3460 C   0  0  0  0  0  0  0  0  0  0  0  0
    8.6614    0.5018   -0.3463 O   0  0  0  0  0  0  0  0  0  0  0  0
    6.6320    1.6429   -0.7608 C   0  0  0  0  0  0  0  0  0  0  0  0
    5.2412    1.6420   -0.7602 C   0  0  0  0  0  0  0  0  0  0  0  0
  1  2  2  0
  2  3  1  0
  3  4  1  0
  4  5  1  0
  5  6  1  0
  5  7  1  0
  7  8  1  0
  8  9  1  0
  9 10  1  0
 10 11  1  0
  8 12  1  0
 12  5  1  0
  2 13  1  0
 13 14  1  0
 14 15  1  0
 15 16  2  0
 15 17  1  0
 17 18  1  0
 18 19  1  0
 19 20  2  0
 19 21  1  0
 13 22  1  0
 22 23  1  0
 23 24  2  0
 24 25  1  0
 25 26  2  0
 26 27  1  0
 26 28  1  0
 28 29  2  0
 29 23  1  0
M  END
$$$$
s_22____12139182____518218
     RDKit          3D

 26 27  0  0  0  0  0  0  0  0999 V2000
   -0.2680    1.7903    9.7275 Br  0  0  0  0  0  0  0  0  0  0  0  0
    1.1769    0.9875    8.6743 C   0  0  0  0  0  0  0  0  0  0  0  0
    2.3267    1.7239    8.4081 C   0  0  0  0  0  0  0  0  0  0  0  0
    3.3487    1.1488    7.6600 C   0  0  0  0  0  0  0  0  0  0  0  0
    3.2105   -0.1522    7.1876 C   0  0  0  0  0  0  0  0  0  0  0  0
    2.0578   -0.8831    7.4575 C   0  0  0  0  0  0  0  0  0  0  0  0
    1.0315   -0.3144    8.2048 C   0  0  0  0  0  0  0  0  0  0  0  0
    4.3313   -0.7747    6.3713 C   0  0  0  0  0  0  0  0  0  0  0  0
    5.5455   -0.8651    7.1950 N   0  0  0  0  0  0  0  0  0  0  0  0
    6.1160   -2.0858    7.4427 C   0  0  0  0  0  0  0  0  0  0  0  0
    5.6245   -3.0812    6.9871 O   0  0  0  0  0  0  0  0  0  0  0  0
    7.2475   -2.1700    8.2104 N   0  0  0  0  0  0  0  0  0  0  0  0
    4.6097    0.0887    5.1516 C   0  0  0  0  0  0  0  0  0  0  0  0
    3.3542    0.1822    4.2999 C   0  0  0  0  0  0  0  0  0  0  0  0
    2.4852   -0.6366    4.4202 O   0  0  0  0  0  0  0  0  0  0  0  0
    3.2114    1.2255    3.3733 N   0  0  0  0  0  0  0  0  0  0  0  0
    2.0224    1.4937    2.5693 C   0  0  0  0  0  0  0  0  0  0  0  0
    2.0036    3.0049    2.5311 C   0  0  0  0  0  0  0  0  0  0  0  0
    1.3112    3.4864    1.3896 O   0  0  0  0  0  0  0  0  0  0  0  0
    1.3189    4.9064    1.3954 C   0  0  0  0  0  0  0  0  0  0  0  0
    0.5773    5.4220    0.1729 C   0  0  0  0  0  0  0  0  0  0  0  0
    1.2628    4.9167   -1.0861 C   0  0  0  0  0  0  0  0  0  0  0  0
    0.5212    5.4324   -2.3086 C   0  0  0  0  0  0  0  0  0  0  0  0
    2.6983    5.4157   -1.1165 C   0  0  0  0  0  0  0  0  0  0  0  0
    3.4622    3.4171    2.4912 C   0  0  0  0  0  0  0  0  0  0  0  0
    4.2325    2.2263    3.0455 C   0  0  0  0  0  0  0  0  0  0  0  0
  1  2  1  0
  2  3  2  0
  3  4  1  0
  4  5  2  0
  5  6  1  0
  6  7  2  0
  7  2  1  0
  5  8  1  0
  8  9  1  0
  9 10  1  0
 10 11  2  0
 10 12  1  0
  8 13  1  0
 13 14  1  0
 14 15  2  0
 14 16  1  0
 16 17  1  0
 17 18  1  0
 18 19  1  0
 19 20  1  0
 20 21  1  0
 21 22  1  0
 22 23  1  0
 22 24  1  0
 18 25  1  0
 25 26  1  0
 26 16  1  0
M  END
$$$$
s_22____14244378____16887748
     RDKit          3D

 29 29  0  0  0  0  0  0  0  0999 V2000
    0.9150    1.0000    3.2257 O   0  0  0  0  0  0  0  0  0  0  0  0
    0.3150    1.0000    2.1865 C   0  0  0  0  0  0  0  0  0  0  0  0
    1.0000    1.0000    1.0000 N   0  0  0  0  0  0  0  0  0  0  0  0
    2.4700    1.0000    1.0000 C   0  0  0  0  0  0  0  0  0  0  0  0
    2.9767   -0.4113    1.2488 C   0  0  0  0  0  0  0  0  0  0  0  0
    4.4967   -0.4113    1.2488 C   0  0  0  0  0  0  0  0  0  0  0  0
    4.9700   -1.7297    1.4813 O   0  0  0  0  0  0  0  0  0  0  0  0
    6.3900   -1.7297    1.4813 C   0  0  0  0  0  0  0  0  0  0  0  0
    6.8967   -1.9786    0.0700 C   0  0  0  0  0  0  0  0  0  0  0  0
    6.3900   -3.3252   -0.4201 C   0  0  0  0  0  0  0  0  0  0  0  0
    6.8967   -3.5741   -1.8314 C   0  0  0  0  0  0  0  0  0  0  0  0
    6.8967   -4.4230    0.5011 C   0  0  0  0  0  0  0  0  0  0  0  0
   -1.2050    1.0000    2.1865 C   0  0  0  0  0  0  0  0  0  0  0  0
   -1.6950    0.1091    1.1248 N   0  0  0  0  0  0  0  0  0  0  0  0
   -2.4826    0.6082    0.1211 C   0  0  0  0  0  0  0  0  0  0  0  0
   -2.7725    1.7726    0.1086 O   0  0  0  0  0  0  0  0  0  0  0  0
   -2.9893   -0.3129   -0.9767 C   0  0  0  0  0  0  0  0  0  0  0  0
   -3.7782    0.4318   -1.8929 O   0  0  0  0  0  0  0  0  0  0  0  0
   -4.2515   -0.4287   -2.9185 C   0  0  0  0  0  0  0  0  0  0  0  0
   -5.0960    0.3685   -3.8992 C   0  0  0  0  0  0  0  0  0  0  0  0
   -3.0693   -1.0428   -3.6504 C   0  0  0  0  0  0  0  0  0  0  0  0
   -1.7117    0.5099    3.5331 C   0  0  0  0  0  0  0  0  0  0  0  0
   -3.2317    0.5099    3.5331 C   0  0  0  0  0  0  0  0  0  0  0  0
   -3.9161   -0.6281    3.1189 C   0  0  0  0  0  0  0  0  0  0  0  0
   -5.3069   -0.6330    3.1180 C   0  0  0  0  0  0  0  0  0  0  0  0
   -5.9966    0.5021    3.5324 C   0  0  0  0  0  0  0  0  0  0  0  0
   -7.3464    0.5018    3.5327 O   0  0  0  0  0  0  0  0  0  0  0  0
   -5.3170    1.6429    3.9473 C   0  0  0  0  0  0  0  0  0  0  0  0
   -3.9262    1.6420    3.9466 C   0  0  0  0  0  0  0  0  0  0  0  0
  1  2  2  0
  2  3  1  0
  3  4  1  0
  4  5  1  0
  5  6  1  0
  6  7  1  0
  7  8  1  0
  8  9  1  0
  9 10  1  0
 10 11  1  0
 10 12  1  0
  2 13  1  0
 13 14  1  0
 14 15  1  0
 15 16  2  0
 15 17  1  0
 17 18  1  0
 18 19  1  0
 19 20  1  0
 19 21  1  0
 13 22  1  0
 22 23  1  0
 23 24  2  0
 24 25  1  0
 25 26  2  0
 26 27  1  0
 26 28  1  0
 28 29  2  0
 29 23  1  0
M  END
$$$$
s_22____7114804____17513450
     RDKit          3D

 25 26  0  0  0  0  0  0  0  0999 V2000
    0.9150    1.0000    3.2257 O   0  0  0  0  0  0  0  0  0  0  0  0
    0.3150    1.0000    2.1865 C   0  0  0  0  0  0  0  0  0  0  0  0
    1.0000    1.0000    1.0000 N   0  0  0  0  0  0  0  0  0  0  0  0
    2.4700    1.0000    1.0000 C   0  0  0  0  0  0  0  0  0  0  0  0
    2.9767   -0.4113    1.2488 C   0  0  0  0  0  0  0  0  0  0  0  0
    4.3967   -0.4113    1.2488 O   0  0  0  0  0  0  0  0  0  0  0  0
    2.4700   -1.3325    0.1511 C   0  0  0  0  0  0  0  0  0  0  0  0
    2.9433   -2.6509    0.3835 O   0  0  0  0  0  0  0  0  0  0  0  0
    2.4700   -3.5115   -0.6420 C   0  0  0  0  0  0  0  0  0  0  0  0
    2.9769   -4.9233   -0.3931 C   0  0  0  0  0  0  0  0  0  0  0  0
    2.4954   -5.4416    0.9306 C   0  0  0  0  0  0  0  0  0  0  0  0
    3.9211   -4.9966    0.7723 C   0  0  0  0  0  0  0  0  0  0  0  0
   -1.2050    1.0000    2.1865 C   0  0  0  0  0  0  0  0  0  0  0  0
   -1.6950    1.0000    3.5724 N   0  0  0  0  0  0  0  0  0  0  0  0
   -2.4826    2.0275    4.0205 C   0  0  0  0  0  0  0  0  0  0  0  0
   -2.7725    2.9275    3.2816 O   0  0  0  0  0  0  0  0  0  0  0  0
   -2.9893    2.0275    5.4535 C   0  0  0  0  0  0  0  0  0  0  0  0
   -1.7117   -0.2411    1.4699 C   0  0  0  0  0  0  0  0  0  0  0  0
   -3.2317   -0.2411    1.4699 C   0  0  0  0  0  0  0  0  0  0  0  0
   -3.9161    0.3644    0.4212 C   0  0  0  0  0  0  0  0  0  0  0  0
   -5.3069    0.3662    0.4166 C   0  0  0  0  0  0  0  0  0  0  0  0
   -5.9966   -0.2391    1.4624 C   0  0  0  0  0  0  0  0  0  0  0  0
   -7.3464   -0.2393    1.4621 O   0  0  0  0  0  0  0  0  0  0  0  0
   -5.3170   -0.8457    2.5138 C   0  0  0  0  0  0  0  0  0  0  0  0
   -3.9262   -0.8449    2.5131 C   0  0  0  0  0  0  0  0  0  0  0  0
  1  2  2  0
  2  3  1  0
  3  4  1  0
  4  5  1  0
  5  6  1  0
  5  7  1  0
  7  8  1  0
  8  9  1  0
  9 10  1  0
 10 11  1  0
 11 12  1  0
 12 10  1  0
  2 13  1  0
 13 14  1  0
 14 15  1  0
 15 16  2  0
 15 17  1  0
 13 18  1  0
 18 19  1  0
 19 20  2  0
 20 21  1  0
 21 22  2  0
 22 23  1  0
 22 24  1  0
 24 25  2  0
 25 19  1  0
M  END
$$$$
s_22____15088960____17513450
     RDKit          3D

 27 28  0  0  0  0  0  0  0  0999 V2000
    0.4000    2.0360    0.9181 O   0  0  0  0  0  0  0  0  0  0  0  0
    1.0000    1.0000    1.0000 C   0  0  0  0  0  0  0  0  0  0  0  0
    2.3975    1.0000    1.0000 N   0  0  0  0  0  0  0  0  0  0  0  0
    3.0944   -0.2227    1.4335 C   0  0  0  0  0  0  0  0  0  0  0  0
    4.4055    0.0895    2.1425 C   0  0  0  0  0  0  0  0  0  0  0  0
    5.2297    1.1536    1.4299 C   0  0  0  0  0  0  0  0  0  0  0  0
    6.3656    1.4328    2.2337 O   0  0  0  0  0  0  0  0  0  0  0  0
    6.7585    2.7842    2.0448 C   0  0  0  0  0  0  0  0  0  0  0  0
    7.9750    3.0832    2.9057 C   0  0  0  0  0  0  0  0  0  0  0  0
    5.6813    0.7089    0.1585 O   0  0  0  0  0  0  0  0  0  0  0  0
    6.3256   -0.5488    0.2984 C   0  0  0  0  0  0  0  0  0  0  0  0
    6.8087   -1.0247   -1.0620 C   0  0  0  0  0  0  0  0  0  0  0  0
    4.4032    2.4288    1.3239 C   0  0  0  0  0  0  0  0  0  0  0  0
    3.0906    2.2295    0.5757 C   0  0  0  0  0  0  0  0  0  0  0  0
    0.2400   -0.3123    1.1038 C   0  0  0  0  0  0  0  0  0  0  0  0
   -0.7765   -0.3750    0.0438 N   0  0  0  0  0  0  0  0  0  0  0  0
   -0.7381   -1.3829   -0.8834 C   0  0  0  0  0  0  0  0  0  0  0  0
    0.1253   -2.2145   -0.8301 O   0  0  0  0  0  0  0  0  0  0  0  0
   -1.7892   -1.4477   -1.9795 C   0  0  0  0  0  0  0  0  0  0  0  0
   -0.4378   -0.3992    2.4615 C   0  0  0  0  0  0  0  0  0  0  0  0
   -0.7109   -1.8559    2.7992 C   0  0  0  0  0  0  0  0  0  0  0  0
    0.2494   -2.5906    3.4869 C   0  0  0  0  0  0  0  0  0  0  0  0
    0.0036   -3.9236    3.7987 C   0  0  0  0  0  0  0  0  0  0  0  0
   -1.2016   -4.5055    3.4184 C   0  0  0  0  0  0  0  0  0  0  0  0
   -1.4441   -5.7990    3.7187 O   0  0  0  0  0  0  0  0  0  0  0  0
   -2.1652   -3.7752    2.7302 C   0  0  0  0  0  0  0  0  0  0  0  0
   -1.9143   -2.4426    2.4214 C   0  0  0  0  0  0  0  0  0  0  0  0
  1  2  2  0
  2  3  1  0
  3  4  1  0
  4  5  1  0
  5  6  1  0
  6  7  1  0
  7  8  1  0
  8  9  1  0
  6 10  1  0
 10 11  1  0
 11 12  1  0
  6 13  1  0
 13 14  1  0
 14  3  1  0
  2 15  1  0
 15 16  1  0
 16 17  1  0
 17 18  2  0
 17 19  1  0
 15 20  1  0
 20 21  1  0
 21 22  2  0
 22 23  1  0
 23 24  2  0
 24 25  1  0
 24 26  1  0
 26 27  2  0
 27 21  1  0
M  END
$$$$
s_2708____12222526____5535004
     RDKit          3D

 27 28  0  0  0  0  0  0  0  0999 V2000
    6.3929   -0.0333    3.6713 O   0  0  0  0  0  0  0  0  0  0  0  0
    6.0035    0.2503    4.7704 C   0  0  0  0  0  0  0  0  0  0  0  0
    6.6740   -0.2075    5.8740 N   0  0  0  0  0  0  0  0  0  0  0  0
    6.1970    0.1399    7.2203 C   0  0  0  0  0  0  0  0  0  0  0  0
    5.4108   -1.0270    7.7961 C   0  0  0  0  0  0  0  0  0  0  0  0
    6.0701   -2.0054    8.5329 C   0  0  0  0  0  0  0  0  0  0  0  0
    5.3471   -3.0719    9.0573 C   0  0  0  0  0  0  0  0  0  0  0  0
    3.9750   -3.1535    8.8445 C   0  0  0  0  0  0  0  0  0  0  0  0
    3.3268   -2.1701    8.1073 C   0  0  0  0  0  0  0  0  0  0  0  0
    4.0387   -1.0991    7.5772 C   0  0  0  0  0  0  0  0  0  0  0  0
    7.8704   -1.0460    5.7117 C   0  0  0  0  0  0  0  0  0  0  0  0
    9.1041   -0.1607    5.6438 C   0  0  0  0  0  0  0  0  0  0  0  0
    8.9922    0.7233    4.5382 O   0  0  0  0  0  0  0  0  0  0  0  0
   10.3413   -1.0278    5.4760 C   0  0  0  0  0  0  0  0  0  0  0  0
    4.8884    1.0318    4.9217 N   0  0  0  0  0  0  0  0  0  0  0  0
    4.1692    1.5228    3.7379 C   0  0  0  0  0  0  0  0  0  0  0  0
    4.1551    3.0429    3.7333 C   0  0  0  0  0  0  0  0  0  0  0  0
    3.4088    3.5546    2.5118 C   0  0  0  0  0  0  0  0  0  0  0  0
    1.9831    3.0265    2.5092 C   0  0  0  0  0  0  0  0  0  0  0  0
    1.2946    3.4962    1.3600 O   0  0  0  0  0  0  0  0  0  0  0  0
   -0.0349    2.9973    1.3678 C   0  0  0  0  0  0  0  0  0  0  0  0
   -0.7721    3.5002    0.1373 C   0  0  0  0  0  0  0  0  0  0  0  0
   -0.8011    5.0198    0.1499 C   0  0  0  0  0  0  0  0  0  0  0  0
   -1.5383    5.5227   -1.0805 C   0  0  0  0  0  0  0  0  0  0  0  0
   -1.5160    5.5026    1.4014 C   0  0  0  0  0  0  0  0  0  0  0  0
    2.0046    1.5065    2.5106 C   0  0  0  0  0  0  0  0  0  0  0  0
    2.7461    0.9884    3.7324 C   0  0  0  0  0  0  0  0  0  0  0  0
  1  2  2  0
  2  3  1  0
  3  4  1  0
  4  5  1  0
  5  6  2  0
  6  7  1  0
  7  8  2  0
  8  9  1  0
  9 10  2  0
 10  5  1  0
  3 11  1  0
 11 12  1  0
 12 13  1  0
 12 14  1  0
  2 15  1  0
 15 16  1  0
 16 17  1  0
 17 18  1  0
 18 19  1  0
 19 20  1  0
 20 21  1  0
 21 22  1  0
 22 23  1  0
 23 24  1  0
 23 25  1  0
 19 26  1  0
 26 27  1  0
 27 16  1  0
M  END
$$$$
s_2708____12222526____8696720
     RDKit          3D

 29 31  0  0  0  0  0  0  0  0999 V2000
    9.2889   -1.1617    3.6528 F   0  0  0  0  0  0  0  0  0  0  0  0
    8.3022   -2.0418    3.5052 C   0  0  0  0  0  0  0  0  0  0  0  0
    7.3943   -2.2493    4.5389 C   0  0  0  0  0  0  0  0  0  0  0  0
    6.3596   -3.1678    4.3948 C   0  0  0  0  0  0  0  0  0  0  0  0
    6.2407   -3.8802    3.2060 C   0  0  0  0  0  0  0  0  0  0  0  0
    7.1508   -3.6698    2.1748 C   0  0  0  0  0  0  0  0  0  0  0  0
    8.1862   -2.7516    2.3153 C   0  0  0  0  0  0  0  0  0  0  0  0
    7.5357   -1.4643    5.8337 C   0  0  0  0  0  0  0  0  0  0  0  0
    6.6295   -0.3055    5.8978 N   0  0  0  0  0  0  0  0  0  0  0  0
    6.0035    0.2503    4.7704 C   0  0  0  0  0  0  0  0  0  0  0  0
    6.4452    0.0407    3.6745 O   0  0  0  0  0  0  0  0  0  0  0  0
    4.8884    1.0318    4.9217 N   0  0  0  0  0  0  0  0  0  0  0  0
    4.1692    1.5228    3.7379 C   0  0  0  0  0  0  0  0  0  0  0  0
    4.1551    3.0429    3.7333 C   0  0  0  0  0  0  0  0  0  0  0  0
    3.4088    3.5546    2.5118 C   0  0  0  0  0  0  0  0  0  0  0  0
    1.9831    3.0265    2.5092 C   0  0  0  0  0  0  0  0  0  0  0  0
    1.2946    3.4962    1.3600 O   0  0  0  0  0  0  0  0  0  0  0  0
   -0.0349    2.9973    1.3678 C   0  0  0  0  0  0  0  0  0  0  0  0
   -0.7721    3.5002    0.1373 C   0  0  0  0  0  0  0  0  0  0  0  0
   -2.1951    2.9661    0.1457 C   0  0  0  0  0  0  0  0  0  0  0  0
   -2.1661    1.4465    0.1331 C   0  0  0  0  0  0  0  0  0  0  0  0
   -2.9101    3.4488    1.3972 C   0  0  0  0  0  0  0  0  0  0  0  0
    2.0046    1.5065    2.5106 C   0  0  0  0  0  0  0  0  0  0  0  0
    2.7461    0.9884    3.7324 C   0  0  0  0  0  0  0  0  0  0  0  0
    6.4645    0.2373    7.2539 C   0  0  0  0  0  0  0  0  0  0  0  0
    5.7928   -0.7904    8.1507 C   0  0  0  0  0  0  0  0  0  0  0  0
    6.4773   -2.0895    8.0609 N   0  0  0  0  0  0  0  0  0  0  0  0
    7.2914   -2.4441    6.9775 C   0  0  0  0  0  0  0  0  0  0  0  0
    7.7771   -3.5644    6.9569 O   0  0  0  0  0  0  0  0  0  0  0  0
  1  2  1  0
  2  3  2  0
  3  4  1  0
  4  5  2  0
  5  6  1  0
  6  7  2  0
  7  2  1  0
  3  8  1  0
  8  9  1  0
  9 10  1  0
 10 11  2  0
 10 12  1  0
 12 13  1  0
 13 14  1  0
 14 15  1  0
 15 16  1  0
 16 17  1  0
 17 18  1  0
 18 19  1  0
 19 20  1  0
 20 21  1  0
 20 22  1  0
 16 23  1  0
 23 24  1  0
 24 13  1  0
  9 25  1  0
 25 26  1  0
 26 27  1  0
 27 28  1  0
 28  8  1  0
 28 29  2  0
M  END
$$$$
s_22____14518678____220032
     RDKit          3D

 23 24  0  0  0  0  0  0  0  0999 V2000
    1.7301    0.2657   -2.6418 S   0  0  0  0  0  0  0  0  0  0  0  0
    2.8456    0.2901   -1.3578 C   0  0  0  0  0  0  0  0  0  0  0  0
    3.5319   -0.8836   -1.3934 C   0  0  0  0  0  0  0  0  0  0  0  0
    3.1125   -1.7431   -2.4464 C   0  0  0  0  0  0  0  0  0  0  0  0
    2.1148   -1.2777   -3.2494 C   0  0  0  0  0  0  0  0  0  0  0  0
    3.0267    1.4309   -0.3667 C   0  0  0  0  0  0  0  0  0  0  0  0
    4.4521    1.7778   -0.2739 N   0  0  0  0  0  0  0  0  0  0  0  0
    4.8720    3.0415   -0.5957 C   0  0  0  0  0  0  0  0  0  0  0  0
    4.0761    3.8653   -0.9534 O   0  0  0  0  0  0  0  0  0  0  0  0
    6.3460    3.4001   -0.4997 C   0  0  0  0  0  0  0  0  0  0  0  0
    2.5200    1.0000    1.0000 C   0  0  0  0  0  0  0  0  0  0  0  0
    1.0000    1.0000    1.0000 C   0  0  0  0  0  0  0  0  0  0  0  0
    0.4000    1.0000   -0.0392 O   0  0  0  0  0  0  0  0  0  0  0  0
    0.3150    1.0000    2.1865 N   0  0  0  0  0  0  0  0  0  0  0  0
   -1.1550    1.0000    2.1865 C   0  0  0  0  0  0  0  0  0  0  0  0
   -1.6617   -0.4113    1.9376 C   0  0  0  0  0  0  0  0  0  0  0  0
   -3.0757   -0.4636    1.9284 O   0  0  0  0  0  0  0  0  0  0  0  0
   -3.4319   -1.8263    2.0748 C   0  0  0  0  0  0  0  0  0  0  0  0
   -2.5458   -2.1988    3.2454 C   0  0  0  0  0  0  0  0  0  0  0  0
   -1.3235   -1.3124    3.1127 C   0  0  0  0  0  0  0  0  0  0  0  0
   -4.8897   -1.9646    2.4829 C   0  0  0  0  0  0  0  0  0  0  0  0
   -5.2370   -3.4370    2.6307 C   0  0  0  0  0  0  0  0  0  0  0  0
   -3.1721   -2.6684    0.8348 C   0  0  0  0  0  0  0  0  0  0  0  0
  1  2  1  0
  2  3  2  0
  3  4  1  0
  4  5  2  0
  5  1  1  0
  2  6  1  0
  6  7  1  0
  7  8  1  0
  8  9  2  0
  8 10  1  0
  6 11  1  0
 11 12  1  0
 12 13  2  0
 12 14  1  0
 14 15  1  0
 15 16  1  0
 16 17  1  0
 17 18  1  0
 18 19  1  0
 19 20  1  0
 20 16  1  0
 18 21  1  0
 21 22  1  0
 18 23  1  0
M  END
$$$$
s_2708____11569280____7346370
     RDKit          3D

 30 32  0  0  0  0  0  0  0  0999 V2000
    4.1399    6.3669    5.6527 F   0  0  0  0  0  0  0  0  0  0  0  0
    3.3989    5.4805    4.9932 C   0  0  0  0  0  0  0  0  0  0  0  0
    3.0177    5.7375    3.6803 C   0  0  0  0  0  0  0  0  0  0  0  0
    2.2420    4.8063    2.9973 C   0  0  0  0  0  0  0  0  0  0  0  0
    1.8576    3.6310    3.6341 C   0  0  0  0  0  0  0  0  0  0  0  0
    2.2420    3.3791    4.9466 C   0  0  0  0  0  0  0  0  0  0  0  0
    3.0178    4.3063    5.6343 C   0  0  0  0  0  0  0  0  0  0  0  0
    1.0100    2.6179    2.8824 C   0  0  0  0  0  0  0  0  0  0  0  0
    1.8776    1.8776    1.8776 C   0  0  0  0  0  0  0  0  0  0  0  0
    2.8824    1.0100    2.6179 C   0  0  0  0  0  0  0  0  0  0  0  0
    2.5270    0.3416    3.5489 O   0  0  0  0  0  0  0  0  0  0  0  0
    4.1939    0.9912    2.2222 N   0  0  0  0  0  0  0  0  0  0  0  0
    5.0913   -0.0696    2.7021 C   0  0  0  0  0  0  0  0  0  0  0  0
    4.7037    2.0318    1.3177 C   0  0  0  0  0  0  0  0  0  0  0  0
    1.0000    1.0000    1.0000 C   0  0  0  0  0  0  0  0  0  0  0  0
    1.8487    0.1513    0.1513 N   0  0  0  0  0  0  0  0  0  0  0  0
    2.0760   -1.1545    0.4979 C   0  0  0  0  0  0  0  0  0  0  0  0
    1.5116   -1.6312    1.4436 O   0  0  0  0  0  0  0  0  0  0  0  0
    2.9475   -1.9161   -0.2351 N   0  0  0  0  0  0  0  0  0  0  0  0
    3.1913   -3.3170    0.1367 C   0  0  0  0  0  0  0  0  0  0  0  0
    2.2144   -4.2458   -0.5689 C   0  0  0  0  0  0  0  0  0  0  0  0
    2.4800   -5.6942   -0.1882 C   0  0  0  0  0  0  0  0  0  0  0  0
    3.8317   -5.9860   -0.5379 O   0  0  0  0  0  0  0  0  0  0  0  0
    4.8110   -5.1947    0.1224 C   0  0  0  0  0  0  0  0  0  0  0  0
    4.6159   -3.7229   -0.2065 C   0  0  0  0  0  0  0  0  0  0  0  0
    2.1912   -5.8659    1.2948 C   0  0  0  0  0  0  0  0  0  0  0  0
    2.4568   -7.2953    1.7323 C   0  0  0  0  0  0  0  0  0  0  0  0
    1.5004   -8.1934    0.9665 C   0  0  0  0  0  0  0  0  0  0  0  0
    1.6920   -8.0338   -0.5332 C   0  0  0  0  0  0  0  0  0  0  0  0
    1.4830   -6.5785   -0.9209 C   0  0  0  0  0  0  0  0  0  0  0  0
  1  2  1  0
  2  3  2  0
  3  4  1  0
  4  5  2  0
  5  6  1  0
  6  7  2  0
  7  2  1  0
  5  8  1  0
  8  9  1  0
  9 10  1  0
 10 11  2  0
 10 12  1  0
 12 13  1  0
 12 14  1  0
  9 15  1  0
 15 16  1  0
 16 17  1  0
 17 18  2  0
 17 19  1  0
 19 20  1  0
 20 21  1  0
 21 22  1  0
 22 23  1  0
 23 24  1  0
 24 25  1  0
 25 20  1  0
 22 26  1  0
 26 27  1  0
 27 28  1  0
 28 29  1  0
 29 30  1  0
 30 22  1  0
M  END
$$$$
s_2708____8992528____5904686
     RDKit          3D

 32 34  0  0  0  0  0  0  0  0999 V2000
    0.4000   -0.0392    1.0000 O   0  0  0  0  0  0  0  0  0  0  0  0
    1.0000    1.0000    1.0000 C   0  0  0  0  0  0  0  0  0  0  0  0
    2.3700    1.0000    1.0000 N   0  0  0  0  0  0  0  0  0  0  0  0
    3.1050   -0.2731    1.0000 C   0  0  0  0  0  0  0  0  0  0  0  0
    4.2359   -0.2052   -0.0133 C   0  0  0  0  0  0  0  0  0  0  0  0
    4.6995    0.8569   -0.3248 O   0  0  0  0  0  0  0  0  0  0  0  0
    4.7259   -1.3566   -0.5711 N   0  0  0  0  0  0  0  0  0  0  0  0
    6.0174   -1.3781   -1.1116 C   0  0  0  0  0  0  0  0  0  0  0  0
    6.2085   -1.0573   -2.4518 C   0  0  0  0  0  0  0  0  0  0  0  0
    7.4930   -1.0796   -2.9851 C   0  0  0  0  0  0  0  0  0  0  0  0
    8.5743   -1.4210   -2.1799 C   0  0  0  0  0  0  0  0  0  0  0  0
    8.3715   -1.7395   -0.8412 C   0  0  0  0  0  0  0  0  0  0  0  0
    7.0916   -1.7206   -0.2970 C   0  0  0  0  0  0  0  0  0  0  0  0
    3.8958   -2.5694   -0.6022 C   0  0  0  0  0  0  0  0  0  0  0  0
    3.6795   -0.5264    2.3842 C   0  0  0  0  0  0  0  0  0  0  0  0
    2.6721   -1.3031    3.2167 C   0  0  0  0  0  0  0  0  0  0  0  0
    1.7361   -0.6164    3.9831 C   0  0  0  0  0  0  0  0  0  0  0  0
    0.8166   -1.3310    4.7440 C   0  0  0  0  0  0  0  0  0  0  0  0
    0.8367   -2.7217    4.7338 C   0  0  0  0  0  0  0  0  0  0  0  0
    1.7758   -3.3970    3.9641 C   0  0  0  0  0  0  0  0  0  0  0  0
    2.7010   -2.6940    3.1994 C   0  0  0  0  0  0  0  0  0  0  0  0
    0.3150    2.1865    1.0000 N   0  0  0  0  0  0  0  0  0  0  0  0
   -1.1551    2.1865    1.0000 C   0  0  0  0  0  0  0  0  0  0  0  0
   -1.7346    2.8909   -0.2202 C   0  0  0  0  0  0  0  0  0  0  0  0
   -3.1586    2.9825   -0.1892 O   0  0  0  0  0  0  0  0  0  0  0  0
   -3.7802    2.3631    0.9324 C   0  0  0  0  0  0  0  0  0  0  0  0
   -3.2147    2.9076    2.2310 C   0  0  0  0  0  0  0  0  0  0  0  0
   -1.6955    2.8731    2.2452 C   0  0  0  0  0  0  0  0  0  0  0  0
   -1.2948    2.1572   -1.4778 C   0  0  0  0  0  0  0  0  0  0  0  0
   -1.7774    2.9171   -2.7027 C   0  0  0  0  0  0  0  0  0  0  0  0
   -1.1826    4.3159   -2.6980 C   0  0  0  0  0  0  0  0  0  0  0  0
   -1.3379    2.1838   -3.9595 C   0  0  0  0  0  0  0  0  0  0  0  0
  1  2  2  0
  2  3  1  0
  3  4  1  0
  4  5  1  0
  5  6  2  0
  5  7  1  0
  7  8  1  0
  8  9  2  0
  9 10  1  0
 10 11  2  0
 11 12  1  0
 12 13  2  0
 13  8  1  0
  7 14  1  0
  4 15  1  0
 15 16  1  0
 16 17  2  0
 17 18  1  0
 18 19  2  0
 19 20  1  0
 20 21  2  0
 21 16  1  0
  2 22  1  0
 22 23  1  0
 23 24  1  0
 24 25  1  0
 25 26  1  0
 26 27  1  0
 27 28  1  0
 28 23  1  0
 24 29  1  0
 29 30  1  0
 30 31  1  0
 30 32  1  0
M  END
$$$$
s_2708____8366598____12913680
     RDKit          3D

 27 28  0  0  0  0  0  0  0  0999 V2000
    0.4000   -0.0392    1.0000 O   0  0  0  0  0  0  0  0  0  0  0  0
    1.0000    1.0000    1.0000 C   0  0  0  0  0  0  0  0  0  0  0  0
    2.3700    1.0000    1.0000 N   0  0  0  0  0  0  0  0  0  0  0  0
    3.1050   -0.2731    1.0000 C   0  0  0  0  0  0  0  0  0  0  0  0
    3.5739   -0.5874   -0.4113 C   0  0  0  0  0  0  0  0  0  0  0  0
    4.8178   -0.1327   -0.8365 C   0  0  0  0  0  0  0  0  0  0  0  0
    5.2513   -0.4186   -2.1268 C   0  0  0  0  0  0  0  0  0  0  0  0
    4.4339   -1.1572   -2.9765 C   0  0  0  0  0  0  0  0  0  0  0  0
    4.8506   -1.4367   -4.2297 O   0  0  0  0  0  0  0  0  0  0  0  0
    6.1181   -0.9772   -4.6755 C   0  0  0  0  0  0  0  0  0  0  0  0
    3.1889   -1.6141   -2.5564 C   0  0  0  0  0  0  0  0  0  0  0  0
    2.7606   -1.3257   -1.2650 C   0  0  0  0  0  0  0  0  0  0  0  0
    3.1050    2.2731    1.0000 C   0  0  0  0  0  0  0  0  0  0  0  0
    3.3583    2.7118    2.4331 C   0  0  0  0  0  0  0  0  0  0  0  0
    2.1176    2.8816    3.1025 O   0  0  0  0  0  0  0  0  0  0  0  0
    0.3150    2.1865    1.0000 N   0  0  0  0  0  0  0  0  0  0  0  0
   -1.1594    2.1865    1.0000 C   0  0  0  0  0  0  0  0  0  0  0  0
   -1.6883    2.8993   -0.2347 C   0  0  0  0  0  0  0  0  0  0  0  0
   -3.2074    2.9242   -0.1739 C   0  0  0  0  0  0  0  0  0  0  0  0
   -3.6680    3.5818    1.0003 O   0  0  0  0  0  0  0  0  0  0  0  0
   -3.2028    2.9539    2.1873 C   0  0  0  0  0  0  0  0  0  0  0  0
   -1.6825    2.9149    2.2284 C   0  0  0  0  0  0  0  0  0  0  0  0
   -3.7107    3.6078   -1.4352 C   0  0  0  0  0  0  0  0  0  0  0  0
   -5.2306    3.5965   -1.4456 C   0  0  0  0  0  0  0  0  0  0  0  0
   -5.7269    2.1601   -1.4153 C   0  0  0  0  0  0  0  0  0  0  0  0
   -3.2144    5.0441   -1.4655 C   0  0  0  0  0  0  0  0  0  0  0  0
   -3.7176    5.7276   -2.7266 C   0  0  0  0  0  0  0  0  0  0  0  0
  1  2  2  0
  2  3  1  0
  3  4  1  0
  4  5  1  0
  5  6  2  0
  6  7  1  0
  7  8  2  0
  8  9  1  0
  9 10  1  0
  8 11  1  0
 11 12  2  0
 12  5  1  0
  3 13  1  0
 13 14  1  0
 14 15  1  0
  2 16  1  0
 16 17  1  0
 17 18  1  0
 18 19  1  0
 19 20  1  0
 20 21  1  0
 21 22  1  0
 22 17  1  0
 19 23  1  0
 23 24  1  0
 24 25  1  0
 23 26  1  0
 26 27  1  0
M  END
$$$$
s_22____8366566____9736332
     RDKit          3D

 25 26  0  0  0  0  0  0  0  0999 V2000
    2.9700    2.0392    1.0000 O   0  0  0  0  0  0  0  0  0  0  0  0
    2.3700    1.0000    1.0000 C   0  0  0  0  0  0  0  0  0  0  0  0
    1.0000    1.0000    1.0000 N   0  0  0  0  0  0  0  0  0  0  0  0
    0.2628    2.2769    1.0000 C   0  0  0  0  0  0  0  0  0  0  0  0
   -0.6190    2.3785    2.2347 C   0  0  0  0  0  0  0  0  0  0  0  0
   -1.4001    3.6816    2.1739 C   0  0  0  0  0  0  0  0  0  0  0  0
   -2.1999    3.7517    0.9997 O   0  0  0  0  0  0  0  0  0  0  0  0
   -1.4235    3.6628   -0.1873 C   0  0  0  0  0  0  0  0  0  0  0  0
   -0.6296    2.3656   -0.2284 C   0  0  0  0  0  0  0  0  0  0  0  0
   -2.2437    3.7757    3.4352 C   0  0  0  0  0  0  0  0  0  0  0  0
   -1.3411    3.6958    4.6556 C   0  0  0  0  0  0  0  0  0  0  0  0
   -2.1846    3.7899    5.9167 C   0  0  0  0  0  0  0  0  0  0  0  0
   -2.9939    5.0976    3.4456 C   0  0  0  0  0  0  0  0  0  0  0  0
   -1.9981    6.2456    3.4153 C   0  0  0  0  0  0  0  0  0  0  0  0
    3.1300   -0.3164    1.0000 C   0  0  0  0  0  0  0  0  0  0  0  0
    2.4556   -1.2716    0.1091 N   0  0  0  0  0  0  0  0  0  0  0  0
    1.9801   -2.4555    0.6082 C   0  0  0  0  0  0  0  0  0  0  0  0
    2.1143   -2.7128    1.7726 O   0  0  0  0  0  0  0  0  0  0  0  0
    1.2827   -3.4432   -0.3129 C   0  0  0  0  0  0  0  0  0  0  0  0
    4.5496   -0.0818    0.5099 C   0  0  0  0  0  0  0  0  0  0  0  0
    5.3103   -1.3995    0.5099 C   0  0  0  0  0  0  0  0  0  0  0  0
    5.3895   -2.2867   -0.5205 N   0  0  0  0  0  0  0  0  0  0  0  0
    6.1343   -3.3132   -0.1695 C   0  0  0  0  0  0  0  0  0  0  0  0
    6.5548   -3.0948    1.1139 N   0  0  0  0  0  0  0  0  0  0  0  0
    6.0401   -1.9055    1.5485 C   0  0  0  0  0  0  0  0  0  0  0  0
  1  2  2  0
  2  3  1  0
  3  4  1  0
  4  5  1  0
  5  6  1  0
  6  7  1  0
  7  8  1  0
  8  9  1  0
  9  4  1  0
  6 10  1  0
 10 11  1  0
 11 12  1  0
 10 13  1  0
 13 14  1  0
  2 15  1  0
 15 16  1  0
 16 17  1  0
 17 18  2  0
 17 19  1  0
 15 20  1  0
 20 21  1  0
 21 22  1  0
 22 23  2  0
 23 24  1  0
 24 25  1  0
 21 25  2  0
M  END
$$$$
s_2708____6547336____4509338
     RDKit          3D

 25 26  0  0  0  0  0  0  0  0999 V2000
    0.0784   -0.1678    3.3877 O   0  0  0  0  0  0  0  0  0  0  0  0
    0.0489    0.0782    2.2135 C   0  0  0  0  0  0  0  0  0  0  0  0
   -0.9222   -0.4759    1.4217 N   0  0  0  0  0  0  0  0  0  0  0  0
   -1.9280   -1.3718    2.0105 C   0  0  0  0  0  0  0  0  0  0  0  0
   -3.3144   -0.7898    1.7921 C   0  0  0  0  0  0  0  0  0  0  0  0
   -4.3603   -1.6446    1.4597 C   0  0  0  0  0  0  0  0  0  0  0  0
   -5.6285   -1.1101    1.2612 C   0  0  0  0  0  0  0  0  0  0  0  0
   -6.6572   -1.9214    0.9370 O   0  0  0  0  0  0  0  0  0  0  0  0
   -5.8477    0.2574    1.3922 C   0  0  0  0  0  0  0  0  0  0  0  0
   -4.7932    1.1024    1.7239 C   0  0  0  0  0  0  0  0  0  0  0  0
   -3.5201    0.5796    1.9262 C   0  0  0  0  0  0  0  0  0  0  0  0
   -1.8412   -2.7366    1.3470 C   0  0  0  0  0  0  0  0  0  0  0  0
   -0.9583   -0.1745   -0.0166 C   0  0  0  0  0  0  0  0  0  0  0  0
    0.9863    0.9131    1.6648 N   0  0  0  0  0  0  0  0  0  0  0  0
    2.0277    1.5074    2.5140 C   0  0  0  0  0  0  0  0  0  0  0  0
    1.9888    3.0217    2.5119 C   0  0  0  0  0  0  0  0  0  0  0  0
    3.5020    2.9330    2.5189 C   0  0  0  0  0  0  0  0  0  0  0  0
    4.1167    3.9216    1.7058 O   0  0  0  0  0  0  0  0  0  0  0  0
    5.5277    3.7728    1.7650 C   0  0  0  0  0  0  0  0  0  0  0  0
    6.1857    4.8311    0.8947 C   0  0  0  0  0  0  0  0  0  0  0  0
    7.6960    4.6719    0.9580 C   0  0  0  0  0  0  0  0  0  0  0  0
    8.3540    5.7301    0.0877 C   0  0  0  0  0  0  0  0  0  0  0  0
    3.3573    1.6091    1.8049 C   0  0  0  0  0  0  0  0  0  0  0  0
    1.4189    3.6124    3.7912 C   0  0  0  0  0  0  0  0  0  0  0  0
    1.3794    3.6410    1.2628 C   0  0  0  0  0  0  0  0  0  0  0  0
  1  2  2  0
  2  3  1  0
  3  4  1  0
  4  5  1  0
  5  6  2  0
  6  7  1  0
  7  8  1  0
  7  9  2  0
  9 10  1  0
 10 11  2  0
 11  5  1  0
  4 12  1  0
  3 13  1  0
  2 14  1  0
 14 15  1  0
 15 16  1  0
 16 17  1  0
 17 18  1  0
 18 19  1  0
 19 20  1  0
 20 21  1  0
 21 22  1  0
 17 23  1  0
 23 15  1  0
 16 24  1  0
 16 25  1  0
M  END
$$$$
s_2708____8333320____12550288
     RDKit          3D

 26 27  0  0  0  0  0  0  0  0999 V2000
    6.0661    3.1949    5.9450 Cl  0  0  0  0  0  0  0  0  0  0  0  0
    5.6353    2.2573    4.4947 C   0  0  0  0  0  0  0  0  0  0  0  0
    5.6590    0.8677    4.5372 C   0  0  0  0  0  0  0  0  0  0  0  0
    5.3237    0.1311    3.4057 C   0  0  0  0  0  0  0  0  0  0  0  0
    4.9665    0.8014    2.2406 C   0  0  0  0  0  0  0  0  0  0  0  0
    4.9428    2.1910    2.1976 C   0  0  0  0  0  0  0  0  0  0  0  0
    5.2783    2.9278    3.3293 C   0  0  0  0  0  0  0  0  0  0  0  0
    4.5994    0.0047    1.0000 C   0  0  0  0  0  0  0  0  0  0  0  0
    3.1050   -0.2731    1.0000 C   0  0  0  0  0  0  0  0  0  0  0  0
    2.3700    1.0000    1.0000 N   0  0  0  0  0  0  0  0  0  0  0  0
    1.0000    1.0000    1.0000 C   0  0  0  0  0  0  0  0  0  0  0  0
    0.4000   -0.0392    1.0000 O   0  0  0  0  0  0  0  0  0  0  0  0
    0.3150    2.1865    1.0000 N   0  0  0  0  0  0  0  0  0  0  0  0
   -1.1580    2.1865    1.0000 C   0  0  0  0  0  0  0  0  0  0  0  0
   -1.6824    2.9001    2.2360 C   0  0  0  0  0  0  0  0  0  0  0  0
   -3.2019    2.9253    2.1842 C   0  0  0  0  0  0  0  0  0  0  0  0
   -3.6687    3.5821    1.0118 O   0  0  0  0  0  0  0  0  0  0  0  0
   -3.2193    2.9479   -0.1772 C   0  0  0  0  0  0  0  0  0  0  0  0
   -1.6999    2.9124   -0.2211 C   0  0  0  0  0  0  0  0  0  0  0  0
   -3.6928    3.6125    3.4486 C   0  0  0  0  0  0  0  0  0  0  0  0
   -5.2126    3.6068    3.4709 C   0  0  0  0  0  0  0  0  0  0  0  0
   -5.7143    2.1722    3.4465 C   0  0  0  0  0  0  0  0  0  0  0  0
   -5.7034    4.2937    4.7349 C   0  0  0  0  0  0  0  0  0  0  0  0
    2.7378   -1.0701    2.2411 C   0  0  0  0  0  0  0  0  0  0  0  0
    3.4478   -2.2999    2.2411 O   0  0  0  0  0  0  0  0  0  0  0  0
    2.7378   -1.0701   -0.2411 C   0  0  0  0  0  0  0  0  0  0  0  0
  1  2  1  0
  2  3  2  0
  3  4  1  0
  4  5  2  0
  5  6  1  0
  6  7  2  0
  7  2  1  0
  5  8  1  0
  8  9  1  0
  9 10  1  0
 10 11  1  0
 11 12  2  0
 11 13  1  0
 13 14  1  0
 14 15  1  0
 15 16  1  0
 16 17  1  0
 17 18  1  0
 18 19  1  0
 19 14  1  0
 16 20  1  0
 20 21  1  0
 21 22  1  0
 21 23  1  0
  9 24  1  0
 24 25  1  0
  9 26  1  0
M  END
$$$$
s_22____12106192____107332
     RDKit          3D

 28 30  0  0  0  0  0  0  0  0999 V2000
    1.6287   -2.8076   -4.4731 Cl  0  0  0  0  0  0  0  0  0  0  0  0
    2.0403   -1.5646   -3.2675 C   0  0  0  0  0  0  0  0  0  0  0  0
    2.8044   -1.9046   -2.1567 C   0  0  0  0  0  0  0  0  0  0  0  0
    3.1278   -0.9363   -1.2116 C   0  0  0  0  0  0  0  0  0  0  0  0
    2.6787    0.3673   -1.3944 C   0  0  0  0  0  0  0  0  0  0  0  0
    1.9143    0.7077   -2.5049 C   0  0  0  0  0  0  0  0  0  0  0  0
    1.5908   -0.2609   -3.4501 C   0  0  0  0  0  0  0  0  0  0  0  0
    3.0267    1.4309   -0.3667 C   0  0  0  0  0  0  0  0  0  0  0  0
    4.4855    1.6046   -0.3161 N   0  0  0  0  0  0  0  0  0  0  0  0
    5.0404    2.8242   -0.6018 C   0  0  0  0  0  0  0  0  0  0  0  0
    4.3356    3.7506   -0.8934 O   0  0  0  0  0  0  0  0  0  0  0  0
    6.5489    3.0038   -0.5495 C   0  0  0  0  0  0  0  0  0  0  0  0
    2.5200    1.0000    1.0000 C   0  0  0  0  0  0  0  0  0  0  0  0
    1.0000    1.0000    1.0000 C   0  0  0  0  0  0  0  0  0  0  0  0
    0.4000    1.0000   -0.0392 O   0  0  0  0  0  0  0  0  0  0  0  0
    0.3150    1.0000    2.1865 N   0  0  0  0  0  0  0  0  0  0  0  0
   -1.1550    1.0000    2.1865 C   0  0  0  0  0  0  0  0  0  0  0  0
   -1.6617    1.0000    3.6195 C   0  0  0  0  0  0  0  0  0  0  0  0
   -3.1334    1.0000    3.6195 N   0  0  0  0  0  0  0  0  0  0  0  0
   -3.9368   -0.1442    3.6195 C   0  0  0  0  0  0  0  0  0  0  0  0
   -3.4931   -1.2772    3.5841 O   0  0  0  0  0  0  0  0  0  0  0  0
   -5.2917    0.1794    3.6358 N   0  0  0  0  0  0  0  0  0  0  0  0
   -5.4034    1.6370    3.7494 C   0  0  0  0  0  0  0  0  0  0  0  0
   -3.9988    2.1808    3.5909 C   0  0  0  0  0  0  0  0  0  0  0  0
   -6.2773    2.1482    2.6151 C   0  0  0  0  0  0  0  0  0  0  0  0
   -7.6368    1.4691    2.6476 C   0  0  0  0  0  0  0  0  0  0  0  0
   -7.4427   -0.0352    2.4926 C   0  0  0  0  0  0  0  0  0  0  0  0
   -6.4985   -0.6492    3.5206 C   0  0  0  0  0  0  0  0  0  0  0  0
  1  2  1  0
  2  3  2  0
  3  4  1  0
  4  5  2  0
  5  6  1  0
  6  7  2  0
  7  2  1  0
  5  8  1  0
  8  9  1  0
  9 10  1  0
 10 11  2  0
 10 12  1  0
  8 13  1  0
 13 14  1  0
 14 15  2  0
 14 16  1  0
 16 17  1  0
 17 18  1  0
 18 19  1  0
 19 20  1  0
 20 21  2  0
 20 22  1  0
 22 23  1  0
 23 24  1  0
 24 19  1  0
 23 25  1  0
 25 26  1  0
 26 27  1  0
 27 28  1  0
 28 22  1  0
M  END
$$$$
s_272164____9389058____9382468
     RDKit          3D

 25 27  0  0  0  0  0  0  0  0999 V2000
    2.1302   -0.5805    5.8669 O   0  0  0  0  0  0  0  0  0  0  0  0
    2.4800   -1.1711    4.8826 C   0  0  0  0  0  0  0  0  0  0  0  0
    2.6000   -2.5694    4.9087 N   0  0  0  0  0  0  0  0  0  0  0  0
    3.7221   -3.2140    5.4389 C   0  0  0  0  0  0  0  0  0  0  0  0
    3.6058   -4.4862    5.9942 C   0  0  0  0  0  0  0  0  0  0  0  0
    2.3468   -5.0958    6.0540 N   0  0  0  0  0  0  0  0  0  0  0  0
    1.2946   -4.6243    5.2574 C   0  0  0  0  0  0  0  0  0  0  0  0
    0.2153   -5.1892    5.2914 O   0  0  0  0  0  0  0  0  0  0  0  0
    1.5258   -3.4167    4.3607 C   0  0  0  0  0  0  0  0  0  0  0  0
    0.2032   -2.6809    4.2209 C   0  0  0  0  0  0  0  0  0  0  0  0
    4.7407   -5.1214    6.4866 C   0  0  0  0  0  0  0  0  0  0  0  0
    5.9876   -4.5029    6.4483 C   0  0  0  0  0  0  0  0  0  0  0  0
    6.1119   -3.2260    5.9103 C   0  0  0  0  0  0  0  0  0  0  0  0
    4.9763   -2.6056    5.4079 C   0  0  0  0  0  0  0  0  0  0  0  0
    2.7621   -0.4807    3.7334 N   0  0  0  0  0  0  0  0  0  0  0  0
    2.7432    0.9921    3.7356 C   0  0  0  0  0  0  0  0  0  0  0  0
    4.1635    1.5348    3.7163 C   0  0  0  0  0  0  0  0  0  0  0  0
    4.1111    3.0539    3.6713 C   0  0  0  0  0  0  0  0  0  0  0  0
    3.4020    3.5133    2.5268 O   0  0  0  0  0  0  0  0  0  0  0  0
    2.0605    3.0467    2.4998 C   0  0  0  0  0  0  0  0  0  0  0  0
    2.0244    1.5267    2.5070 C   0  0  0  0  0  0  0  0  0  0  0  0
    5.5436    3.5631    3.6889 C   0  0  0  0  0  0  0  0  0  0  0  0
    5.5408    5.0830    3.7070 C   0  0  0  0  0  0  0  0  0  0  0  0
    4.8134    5.5736    4.9483 C   0  0  0  0  0  0  0  0  0  0  0  0
    6.9729    5.5921    3.7246 C   0  0  0  0  0  0  0  0  0  0  0  0
  1  2  2  0
  2  3  1  0
  3  4  1  0
  4  5  2  0
  5  6  1  0
  6  7  1  0
  7  8  2  0
  7  9  1  0
  9  3  1  0
  9 10  1  0
  5 11  1  0
 11 12  2  0
 12 13  1  0
 13 14  2  0
 14  4  1  0
  2 15  1  0
 15 16  1  0
 16 17  1  0
 17 18  1  0
 18 19  1  0
 19 20  1  0
 20 21  1  0
 21 16  1  0
 18 22  1  0
 22 23  1  0
 23 24  1  0
 23 25  1  0
M  END
$$$$
s_512____8366578____12639314
     RDKit          3D

 28 29  0  0  0  0  0  0  0  0999 V2000
    7.2250    1.8140    3.8224 Br  0  0  0  0  0  0  0  0  0  0  0  0
    5.7910    0.5054    3.5537 C   0  0  0  0  0  0  0  0  0  0  0  0
    4.9934    0.5824    2.4172 C   0  0  0  0  0  0  0  0  0  0  0  0
    3.9790   -0.3536    2.2413 C   0  0  0  0  0  0  0  0  0  0  0  0
    3.7574   -1.3546    3.1810 C   0  0  0  0  0  0  0  0  0  0  0  0
    4.5665   -1.4130    4.3110 C   0  0  0  0  0  0  0  0  0  0  0  0
    5.5861   -0.4872    4.5061 C   0  0  0  0  0  0  0  0  0  0  0  0
    3.1050   -0.2731    1.0000 C   0  0  0  0  0  0  0  0  0  0  0  0
    2.3700    1.0000    1.0000 N   0  0  0  0  0  0  0  0  0  0  0  0
    1.0000    1.0000    1.0000 C   0  0  0  0  0  0  0  0  0  0  0  0
    0.4000   -0.0392    1.0000 O   0  0  0  0  0  0  0  0  0  0  0  0
    0.3150    2.1865    1.0000 N   0  0  0  0  0  0  0  0  0  0  0  0
   -1.1594    2.1865    1.0000 C   0  0  0  0  0  0  0  0  0  0  0  0
   -1.6883    2.8993   -0.2347 C   0  0  0  0  0  0  0  0  0  0  0  0
   -3.2074    2.9242   -0.1739 C   0  0  0  0  0  0  0  0  0  0  0  0
   -3.6680    3.5818    1.0003 O   0  0  0  0  0  0  0  0  0  0  0  0
   -3.2028    2.9539    2.1873 C   0  0  0  0  0  0  0  0  0  0  0  0
   -1.6825    2.9149    2.2284 C   0  0  0  0  0  0  0  0  0  0  0  0
   -3.7107    3.6078   -1.4352 C   0  0  0  0  0  0  0  0  0  0  0  0
   -5.2306    3.5965   -1.4456 C   0  0  0  0  0  0  0  0  0  0  0  0
   -5.7269    2.1601   -1.4153 C   0  0  0  0  0  0  0  0  0  0  0  0
   -3.2144    5.0441   -1.4655 C   0  0  0  0  0  0  0  0  0  0  0  0
   -3.7176    5.7276   -2.7266 C   0  0  0  0  0  0  0  0  0  0  0  0
    3.9789   -0.3536   -0.2411 C   0  0  0  0  0  0  0  0  0  0  0  0
    4.5946   -1.7399   -0.3381 C   0  0  0  0  0  0  0  0  0  0  0  0
    4.2182   -2.6159    0.3905 O   0  0  0  0  0  0  0  0  0  0  0  0
    5.5361   -1.9784   -1.2172 O   0  0  0  0  0  0  0  0  0  0  0  0
    6.1113   -3.2735   -1.3079 C   0  0  0  0  0  0  0  0  0  0  0  0
  1  2  1  0
  2  3  2  0
  3  4  1  0
  4  5  2  0
  5  6  1  0
  6  7  2  0
  7  2  1  0
  4  8  1  0
  8  9  1  0
  9 10  1  0
 10 11  2  0
 10 12  1  0
 12 13  1  0
 13 14  1  0
 14 15  1  0
 15 16  1  0
 16 17  1  0
 17 18  1  0
 18 13  1  0
 15 19  1  0
 19 20  1  0
 20 21  1  0
 19 22  1  0
 22 23  1  0
  8 24  1  0
 24 25  1  0
 25 26  2  0
 25 27  1  0
 27 28  1  0
M  END
$$$$
s_22____12856120____219891
     RDKit          3D

 24 25  0  0  0  0  0  0  0  0999 V2000
    6.6755    0.1377    2.1795 O   0  0  0  0  0  0  0  0  0  0  0  0
    6.4599   -0.9595    1.7440 C   0  0  0  0  0  0  0  0  0  0  0  0
    5.4194   -1.1596    0.8756 N   0  0  0  0  0  0  0  0  0  0  0  0
    4.5670   -0.0301    0.4773 C   0  0  0  0  0  0  0  0  0  0  0  0
    4.6393    0.1523   -1.0303 C   0  0  0  0  0  0  0  0  0  0  0  0
    4.1955   -0.8644   -1.8695 C   0  0  0  0  0  0  0  0  0  0  0  0
    4.2642   -0.6936   -3.2484 C   0  0  0  0  0  0  0  0  0  0  0  0
    4.7726    0.4875   -3.7785 C   0  0  0  0  0  0  0  0  0  0  0  0
    5.2126    1.4965   -2.9305 C   0  0  0  0  0  0  0  0  0  0  0  0
    5.1497    1.3377   -1.5500 C   0  0  0  0  0  0  0  0  0  0  0  0
    3.1300   -0.3113    0.8853 C   0  0  0  0  0  0  0  0  0  0  0  0
    2.3700    1.0000    1.0000 C   0  0  0  0  0  0  0  0  0  0  0  0
    2.9700    2.0353    1.0906 O   0  0  0  0  0  0  0  0  0  0  0  0
    1.0000    1.0000    1.0000 N   0  0  0  0  0  0  0  0  0  0  0  0
    0.2650    2.2731    1.0000 C   0  0  0  0  0  0  0  0  0  0  0  0
   -1.2275    1.9957    1.0000 C   0  0  0  0  0  0  0  0  0  0  0  0
   -2.0268    3.1684    1.0000 O   0  0  0  0  0  0  0  0  0  0  0  0
   -1.7402    3.9365   -0.1594 C   0  0  0  0  0  0  0  0  0  0  0  0
   -3.0053    4.0962   -0.9868 C   0  0  0  0  0  0  0  0  0  0  0  0
   -1.2290    5.3068    0.2543 C   0  0  0  0  0  0  0  0  0  0  0  0
   -1.6027    0.9615    2.0329 C   0  0  0  0  0  0  0  0  0  0  0  0
   -2.5588    0.3921    1.0087 C   0  0  0  0  0  0  0  0  0  0  0  0
   -1.6003    0.9454   -0.0232 C   0  0  0  0  0  0  0  0  0  0  0  0
    7.2544   -2.0121    2.1153 N   0  0  0  0  0  0  0  0  0  0  0  0
  1  2  2  0
  2  3  1  0
  3  4  1  0
  4  5  1  0
  5  6  2  0
  6  7  1  0
  7  8  2  0
  8  9  1  0
  9 10  2  0
 10  5  1  0
  4 11  1  0
 11 12  1  0
 12 13  2  0
 12 14  1  0
 14 15  1  0
 15 16  1  0
 16 17  1  0
 17 18  1  0
 18 19  1  0
 18 20  1  0
 16 21  1  0
 21 22  1  0
 22 23  1  0
 23 16  1  0
  2 24  1  0
M  END
$$$$
s_2708____8333320____13026520
     RDKit          3D

 25 26  0  0  0  0  0  0  0  0999 V2000
    2.9700    2.0392    1.0000 O   0  0  0  0  0  0  0  0  0  0  0  0
    2.3700    1.0000    1.0000 C   0  0  0  0  0  0  0  0  0  0  0  0
    3.0550   -0.1865    1.0000 N   0  0  0  0  0  0  0  0  0  0  0  0
    4.4585   -0.2248    1.4354 C   0  0  0  0  0  0  0  0  0  0  0  0
    4.5420   -0.8402    2.8231 C   0  0  0  0  0  0  0  0  0  0  0  0
    4.7701   -0.0595    3.9523 C   0  0  0  0  0  0  0  0  0  0  0  0
    4.8408   -0.6556    5.2071 C   0  0  0  0  0  0  0  0  0  0  0  0
    4.6835   -2.0325    5.3332 C   0  0  0  0  0  0  0  0  0  0  0  0
    4.4545   -2.8127    4.2043 C   0  0  0  0  0  0  0  0  0  0  0  0
    4.3843   -2.2166    2.9494 C   0  0  0  0  0  0  0  0  0  0  0  0
    4.9420    1.4447    3.8145 C   0  0  0  0  0  0  0  0  0  0  0  0
    5.2689   -1.0628    0.4600 C   0  0  0  0  0  0  0  0  0  0  0  0
    6.6246   -1.0999    0.8806 O   0  0  0  0  0  0  0  0  0  0  0  0
    2.3865   -1.4211    0.5646 C   0  0  0  0  0  0  0  0  0  0  0  0
    1.0000    1.0000    1.0000 N   0  0  0  0  0  0  0  0  0  0  0  0
    0.2628    2.2769    1.0000 C   0  0  0  0  0  0  0  0  0  0  0  0
   -0.6190    2.3785    2.2347 C   0  0  0  0  0  0  0  0  0  0  0  0
   -1.4001    3.6816    2.1739 C   0  0  0  0  0  0  0  0  0  0  0  0
   -2.1999    3.7517    0.9997 O   0  0  0  0  0  0  0  0  0  0  0  0
   -1.4235    3.6628   -0.1873 C   0  0  0  0  0  0  0  0  0  0  0  0
   -0.6296    2.3656   -0.2284 C   0  0  0  0  0  0  0  0  0  0  0  0
   -2.2437    3.7757    3.4352 C   0  0  0  0  0  0  0  0  0  0  0  0
   -2.9939    5.0976    3.4456 C   0  0  0  0  0  0  0  0  0  0  0  0
   -3.8374    5.1917    4.7066 C   0  0  0  0  0  0  0  0  0  0  0  0
   -1.9981    6.2456    3.4153 C   0  0  0  0  0  0  0  0  0  0  0  0
  1  2  2  0
  2  3  1  0
  3  4  1  0
  4  5  1  0
  5  6  2  0
  6  7  1  0
  7  8  2  0
  8  9  1  0
  9 10  2  0
 10  5  1  0
  6 11  1  0
  4 12  1  0
 12 13  1  0
  3 14  1  0
  2 15  1  0
 15 16  1  0
 16 17  1  0
 17 18  1  0
 18 19  1  0
 19 20  1  0
 20 21  1  0
 21 16  1  0
 18 22  1  0
 22 23  1  0
 23 24  1  0
 23 25  1  0
M  END
$$$$
s_22____13940462____107332
     RDKit          3D

 30 31  0  0  0  0  0  0  0  0999 V2000
    2.9613    1.9114   -5.4612 Cl  0  0  0  0  0  0  0  0  0  0  0  0
    3.3832    1.3219   -3.8357 C   0  0  0  0  0  0  0  0  0  0  0  0
    2.8722    0.1096   -3.3854 C   0  0  0  0  0  0  0  0  0  0  0  0
    3.1989   -0.3545   -2.1153 C   0  0  0  0  0  0  0  0  0  0  0  0
    4.0386    0.4070   -1.3095 C   0  0  0  0  0  0  0  0  0  0  0  0
    4.5496    1.6194   -1.7592 C   0  0  0  0  0  0  0  0  0  0  0  0
    4.2228    2.0837   -3.0296 C   0  0  0  0  0  0  0  0  0  0  0  0
    4.4000   -0.0921    0.0793 C   0  0  0  0  0  0  0  0  0  0  0  0
    5.1350   -1.3603   -0.0316 N   0  0  0  0  0  0  0  0  0  0  0  0
    6.4087   -1.4594    0.4630 C   0  0  0  0  0  0  0  0  0  0  0  0
    6.9244   -0.5109    0.9869 O   0  0  0  0  0  0  0  0  0  0  0  0
    7.1687   -2.7707    0.3483 C   0  0  0  0  0  0  0  0  0  0  0  0
    3.1300   -0.3113    0.8853 C   0  0  0  0  0  0  0  0  0  0  0  0
    2.3700    1.0000    1.0000 C   0  0  0  0  0  0  0  0  0  0  0  0
    2.9700    2.0353    1.0906 O   0  0  0  0  0  0  0  0  0  0  0  0
    1.0000    1.0000    1.0000 N   0  0  0  0  0  0  0  0  0  0  0  0
    0.2900    2.2298    1.0000 N   0  0  0  0  0  0  0  0  0  0  0  0
    0.0233    2.6917    2.3720 C   0  0  0  0  0  0  0  0  0  0  0  0
   -0.6709    4.0435    2.3850 C   0  0  0  0  0  0  0  0  0  0  0  0
   -1.1575    4.4264    0.9950 C   0  0  0  0  0  0  0  0  0  0  0  0
   -2.0138    5.5538    1.1158 O   0  0  0  0  0  0  0  0  0  0  0  0
   -1.3477    6.9033    0.1841 Si  0  0  0  0  0  4  0  0  0  0  0  0
   -2.4746    8.3870    0.3431 C   0  0  0  0  0  0  0  0  0  0  0  0
   -1.9026    9.5459   -0.4570 C   0  0  0  0  0  0  0  0  0  0  0  0
   -3.8539    8.0352   -0.1901 C   0  0  0  0  0  0  0  0  0  0  0  0
   -2.5836    8.7861    1.8058 C   0  0  0  0  0  0  0  0  0  0  0  0
    0.3491    7.3362    0.8401 C   0  0  0  0  0  0  0  0  0  0  0  0
   -1.2136    6.4123   -1.6153 C   0  0  0  0  0  0  0  0  0  0  0  0
   -1.8986    3.2219    0.4361 C   0  0  0  0  0  0  0  0  0  0  0  0
   -0.9666    2.0325    0.2604 C   0  0  0  0  0  0  0  0  0  0  0  0
  1  2  1  0
  2  3  2  0
  3  4  1  0
  4  5  2  0
  5  6  1  0
  6  7  2  0
  7  2  1  0
  5  8  1  0
  8  9  1  0
  9 10  1  0
 10 11  2  0
 10 12  1  0
  8 13  1  0
 13 14  1  0
 14 15  2  0
 14 16  1  0
 16 17  1  0
 17 18  1  0
 18 19  1  0
 19 20  1  0
 20 21  1  0
 21 22  1  0
 22 23  1  0
 23 24  1  0
 23 25  1  0
 23 26  1  0
 22 27  1  0
 22 28  1  0
 20 29  1  0
 29 30  1  0
 30 17  1  0
M  END
$$$$
s_22____10268814____17513450
     RDKit          3D

 25 26  0  0  0  0  0  0  0  0999 V2000
    0.4000    1.4877    0.0823 O   0  0  0  0  0  0  0  0  0  0  0  0
    1.0000    1.0000    1.0000 C   0  0  0  0  0  0  0  0  0  0  0  0
    2.4033    1.0000    1.0000 N   0  0  0  0  0  0  0  0  0  0  0  0
    3.2611    1.6436    0.0086 C   0  0  0  0  0  0  0  0  0  0  0  0
    4.3992    2.1859    0.8468 C   0  0  0  0  0  0  0  0  0  0  0  0
    5.6453    2.4246    0.0111 C   0  0  0  0  0  0  0  0  0  0  0  0
    5.3318    3.2910   -1.0694 O   0  0  0  0  0  0  0  0  0  0  0  0
    4.6117    1.0695    1.8560 C   0  0  0  0  0  0  0  0  0  0  0  0
    3.2689    0.3624    1.9882 C   0  0  0  0  0  0  0  0  0  0  0  0
    4.0097    3.4897    1.5264 C   0  0  0  0  0  0  0  0  0  0  0  0
    5.1604    3.9720    2.3946 C   0  0  0  0  0  0  0  0  0  0  0  0
    4.7712    5.2749    3.0738 C   0  0  0  0  0  0  0  0  0  0  0  0
    0.2400    0.3822    2.1624 C   0  0  0  0  0  0  0  0  0  0  0  0
   -1.1768    0.2357    1.7989 N   0  0  0  0  0  0  0  0  0  0  0  0
   -1.7569   -1.0054    1.7900 C   0  0  0  0  0  0  0  0  0  0  0  0
   -1.1084   -1.9729    2.0789 O   0  0  0  0  0  0  0  0  0  0  0  0
   -3.2219   -1.1569    1.4142 C   0  0  0  0  0  0  0  0  0  0  0  0
    0.3599    1.2821    3.3815 C   0  0  0  0  0  0  0  0  0  0  0  0
    0.1137    0.4658    4.6400 C   0  0  0  0  0  0  0  0  0  0  0  0
    1.1856   -0.1524    5.2753 C   0  0  0  0  0  0  0  0  0  0  0  0
    0.9653   -0.8996    6.4275 C   0  0  0  0  0  0  0  0  0  0  0  0
   -0.3264   -1.0188    6.9305 C   0  0  0  0  0  0  0  0  0  0  0  0
   -0.5448   -1.7434    8.0483 O   0  0  0  0  0  0  0  0  0  0  0  0
   -1.4020   -0.4029    6.2988 C   0  0  0  0  0  0  0  0  0  0  0  0
   -1.1758    0.3435    5.1472 C   0  0  0  0  0  0  0  0  0  0  0  0
  1  2  2  0
  2  3  1  0
  3  4  1  0
  4  5  1  0
  5  6  1  0
  6  7  1  0
  5  8  1  0
  8  9  1  0
  9  3  1  0
  5 10  1  0
 10 11  1  0
 11 12  1  0
  2 13  1  0
 13 14  1  0
 14 15  1  0
 15 16  2  0
 15 17  1  0
 13 18  1  0
 18 19  1  0
 19 20  2  0
 20 21  1  0
 21 22  2  0
 22 23  1  0
 22 24  1  0
 24 25  2  0
 25 19  1  0
M  END
$$$$
s_22____17552132____17513450
     RDKit          3D

 25 26  0  0  0  0  0  0  0  0999 V2000
    0.4000   -0.0392    1.0000 O   0  0  0  0  0  0  0  0  0  0  0  0
    1.0000    1.0000    1.0000 C   0  0  0  0  0  0  0  0  0  0  0  0
    2.3700    1.0000    1.0000 N   0  0  0  0  0  0  0  0  0  0  0  0
    3.1050   -0.2297    0.6705 C   0  0  0  0  0  0  0  0  0  0  0  0
    3.4932   -0.2095   -0.7979 C   0  0  0  0  0  0  0  0  0  0  0  0
    2.4223    0.3232   -1.5679 O   0  0  0  0  0  0  0  0  0  0  0  0
    2.7546    0.2614   -2.9471 C   0  0  0  0  0  0  0  0  0  0  0  0
    3.9248   -1.5722   -1.2963 C   0  0  0  0  0  0  0  0  0  0  0  0
    5.2427   -1.7563   -0.8093 O   0  0  0  0  0  0  0  0  0  0  0  0
    5.8394   -0.4892   -0.6125 C   0  0  0  0  0  0  0  0  0  0  0  0
    4.7922    0.5131   -1.0749 C   0  0  0  0  0  0  0  0  0  0  0  0
    3.1050    2.2297    1.3295 C   0  0  0  0  0  0  0  0  0  0  0  0
    0.2400    2.3164    1.0000 C   0  0  0  0  0  0  0  0  0  0  0  0
   -0.7765    2.2953    2.0617 N   0  0  0  0  0  0  0  0  0  0  0  0
   -0.7381    3.2269    3.0654 C   0  0  0  0  0  0  0  0  0  0  0  0
    0.1253    4.0602    3.0779 O   0  0  0  0  0  0  0  0  0  0  0  0
   -1.7892    3.2051    4.1632 C   0  0  0  0  0  0  0  0  0  0  0  0
   -0.4378    2.5101   -0.3466 C   0  0  0  0  0  0  0  0  0  0  0  0
   -0.7109    3.9889   -0.5684 C   0  0  0  0  0  0  0  0  0  0  0  0
    0.2494    4.7755   -1.1960 C   0  0  0  0  0  0  0  0  0  0  0  0
    0.0036    6.1289   -1.4017 C   0  0  0  0  0  0  0  0  0  0  0  0
   -1.2016    6.6790   -0.9768 C   0  0  0  0  0  0  0  0  0  0  0  0
   -1.4441    7.9921   -1.1741 O   0  0  0  0  0  0  0  0  0  0  0  0
   -2.1652    5.8968   -0.3483 C   0  0  0  0  0  0  0  0  0  0  0  0
   -1.9143    4.5439   -0.1455 C   0  0  0  0  0  0  0  0  0  0  0  0
  1  2  2  0
  2  3  1  0
  3  4  1  0
  4  5  1  0
  5  6  1  0
  6  7  1  0
  5  8  1  0
  8  9  1  0
  9 10  1  0
 10 11  1  0
 11  5  1  0
  3 12  1  0
  2 13  1  0
 13 14  1  0
 14 15  1  0
 15 16  2  0
 15 17  1  0
 13 18  1  0
 18 19  1  0
 19 20  2  0
 20 21  1  0
 21 22  2  0
 22 23  1  0
 22 24  1  0
 24 25  2  0
 25 19  1  0
M  END
$$$$
s_22____13654870____16717358
     RDKit          3D

 29 31  0  0  0  0  0  0  0  0999 V2000
    3.9272   -0.8352    0.7118 O   0  0  0  0  0  0  0  0  0  0  0  0
    2.9767   -0.2411    0.2835 C   0  0  0  0  0  0  0  0  0  0  0  0
    2.3481   -0.6814   -0.8514 N   0  0  0  0  0  0  0  0  0  0  0  0
    2.8381   -1.8817   -1.5444 C   0  0  0  0  0  0  0  0  0  0  0  0
    2.3318   -3.1219   -0.8283 C   0  0  0  0  0  0  0  0  0  0  0  0
    2.7841   -3.1609    0.5185 O   0  0  0  0  0  0  0  0  0  0  0  0
    1.7985   -3.8049    1.3101 C   0  0  0  0  0  0  0  0  0  0  0  0
    0.7175   -4.2623    0.3373 C   0  0  0  0  0  0  0  0  0  0  0  0
    0.8373   -3.0969   -0.6210 C   0  0  0  0  0  0  0  0  0  0  0  0
    1.0767   -5.6223   -0.2437 C   0  0  0  0  0  0  0  0  0  0  0  0
    2.5165   -5.6676   -0.7331 C   0  0  0  0  0  0  0  0  0  0  0  0
    2.8365   -4.3919   -1.5024 C   0  0  0  0  0  0  0  0  0  0  0  0
    2.4700    1.0000    1.0000 C   0  0  0  0  0  0  0  0  0  0  0  0
    1.0000    1.0000    1.0000 N   0  0  0  0  0  0  0  0  0  0  0  0
    0.3150    1.0000    2.1865 C   0  0  0  0  0  0  0  0  0  0  0  0
    0.9150    1.0000    3.2257 O   0  0  0  0  0  0  0  0  0  0  0  0
   -1.2050    1.0000    2.1865 C   0  0  0  0  0  0  0  0  0  0  0  0
   -1.6950    1.0000    3.5724 N   0  0  0  0  0  0  0  0  0  0  0  0
   -3.0419    1.0000    3.8227 C   0  0  0  0  0  0  0  0  0  0  0  0
   -3.8217    1.0000    2.9106 O   0  0  0  0  0  0  0  0  0  0  0  0
   -3.5486    1.0000    5.2558 C   0  0  0  0  0  0  0  0  0  0  0  0
    2.9767    2.2411    0.2835 C   0  0  0  0  0  0  0  0  0  0  0  0
    2.4700    3.4822    1.0000 C   0  0  0  0  0  0  0  0  0  0  0  0
    3.2306    4.0410    2.0218 C   0  0  0  0  0  0  0  0  0  0  0  0
    2.7714    5.1770    2.6798 C   0  0  0  0  0  0  0  0  0  0  0  0
    1.5555    5.7409    2.3064 C   0  0  0  0  0  0  0  0  0  0  0  0
    1.1058    6.8432    2.9425 O   0  0  0  0  0  0  0  0  0  0  0  0
    0.7907    5.1858    1.2854 C   0  0  0  0  0  0  0  0  0  0  0  0
    1.2550    4.0500    0.6306 C   0  0  0  0  0  0  0  0  0  0  0  0
  1  2  2  0
  2  3  1  0
  3  4  1  0
  4  5  1  0
  5  6  1  0
  6  7  1  0
  7  8  1  0
  8  9  1  0
  9  5  1  0
  8 10  1  0
 10 11  1  0
 11 12  1  0
 12  5  1  0
  2 13  1  0
 13 14  1  0
 14 15  1  0
 15 16  2  0
 15 17  1  0
 17 18  1  0
 18 19  1  0
 19 20  2  0
 19 21  1  0
 13 22  1  0
 22 23  1  0
 23 24  2  0
 24 25  1  0
 25 26  2  0
 26 27  1  0
 26 28  1  0
 28 29  2  0
 29 23  1  0
M  END
$$$$
s_22____12059262____17057108
     RDKit          3D

 31 33  0  0  0  0  0  0  0  0999 V2000
    2.2240    2.9588    1.4891 O   0  0  0  0  0  0  0  0  0  0  0  0
    1.8776    1.8776    1.8776 C   0  0  0  0  0  0  0  0  0  0  0  0
    2.2731    1.4341    3.1120 N   0  0  0  0  0  0  0  0  0  0  0  0
    3.1207    2.2818    3.9597 C   0  0  0  0  0  0  0  0  0  0  0  0
    2.5382    2.6634    5.3054 C   0  0  0  0  0  0  0  0  0  0  0  0
    3.9424    2.4696    5.8434 C   0  0  0  0  0  0  0  0  0  0  0  0
    3.9630    1.8661    7.1309 O   0  0  0  0  0  0  0  0  0  0  0  0
    4.5947    2.7410    8.0538 C   0  0  0  0  0  0  0  0  0  0  0  0
    3.8244    4.0497    8.1200 C   0  0  0  0  0  0  0  0  0  0  0  0
    4.6167    2.0959    9.4299 C   0  0  0  0  0  0  0  0  0  0  0  0
    6.0193    3.0141    7.5994 C   0  0  0  0  0  0  0  0  0  0  0  0
    4.1275    1.4698    4.7342 C   0  0  0  0  0  0  0  0  0  0  0  0
    1.2640    1.9353    5.6993 C   0  0  0  0  0  0  0  0  0  0  0  0
    0.7559    3.2044    6.3438 C   0  0  0  0  0  0  0  0  0  0  0  0
    1.6357    3.8839    5.3178 C   0  0  0  0  0  0  0  0  0  0  0  0
    1.0000    1.0000    1.0000 C   0  0  0  0  0  0  0  0  0  0  0  0
    0.7171    1.6971   -0.2629 N   0  0  0  0  0  0  0  0  0  0  0  0
    1.1013    1.1397   -1.4540 C   0  0  0  0  0  0  0  0  0  0  0  0
    1.5876    0.0429   -1.4739 O   0  0  0  0  0  0  0  0  0  0  0  0
    0.9116    1.9107   -2.7501 C   0  0  0  0  0  0  0  0  0  0  0  0
    2.0609    1.6024   -3.6959 C   0  0  0  0  0  0  0  0  0  0  0  0
    1.5767    1.7073   -5.1328 C   0  0  0  0  0  0  0  0  0  0  0  0
    3.1866    2.5977   -3.4666 C   0  0  0  0  0  0  0  0  0  0  0  0
   -0.3059    0.7075    1.7208 C   0  0  0  0  0  0  0  0  0  0  0  0
   -1.1835   -0.1701    0.8432 C   0  0  0  0  0  0  0  0  0  0  0  0
   -1.0842   -1.5540    0.9425 C   0  0  0  0  0  0  0  0  0  0  0  0
   -1.8857   -2.3610    0.1420 C   0  0  0  0  0  0  0  0  0  0  0  0
   -2.7781   -1.7726   -0.7486 C   0  0  0  0  0  0  0  0  0  0  0  0
   -3.5577   -2.5520   -1.5276 O   0  0  0  0  0  0  0  0  0  0  0  0
   -2.8811   -0.3891   -0.8520 C   0  0  0  0  0  0  0  0  0  0  0  0
   -2.0774    0.4131   -0.0489 C   0  0  0  0  0  0  0  0  0  0  0  0
  1  2  2  0
  2  3  1  0
  3  4  1  0
  4  5  1  0
  5  6  1  0
  6  7  1  0
  7  8  1  0
  8  9  1  0
  8 10  1  0
  8 11  1  0
  6 12  1  0
 12  4  1  0
  5 13  1  0
 13 14  1  0
 14 15  1  0
 15  5  1  0
  2 16  1  0
 16 17  1  0
 17 18  1  0
 18 19  2  0
 18 20  1  0
 20 21  1  0
 21 22  1  0
 21 23  1  0
 16 24  1  0
 24 25  1  0
 25 26  2  0
 26 27  1  0
 27 28  2  0
 28 29  1  0
 28 30  1  0
 30 31  2  0
 31 25  1  0
M  END
$$$$
s_22____1179570____12624298
     RDKit          3D

 27 28  0  0  0  0  0  0  0  0999 V2000
    9.4211    4.0856   -0.5004 Br  0  0  0  0  0  0  0  0  0  0  0  0
    7.7767    4.8936    0.1955 C   0  0  0  0  0  0  0  0  0  0  0  0
    7.3932    4.6498    1.5097 C   0  0  0  0  0  0  0  0  0  0  0  0
    6.2227    5.2301    1.9885 C   0  0  0  0  0  0  0  0  0  0  0  0
    5.4411    6.0427    1.1743 C   0  0  0  0  0  0  0  0  0  0  0  0
    5.8429    6.2729   -0.1374 C   0  0  0  0  0  0  0  0  0  0  0  0
    7.0095    5.7026   -0.6359 C   0  0  0  0  0  0  0  0  0  0  0  0
    5.7999    4.9664    3.4248 C   0  0  0  0  0  0  0  0  0  0  0  0
    6.8192    5.4977    4.3411 N   0  0  0  0  0  0  0  0  0  0  0  0
    6.4838    6.4632    5.2533 C   0  0  0  0  0  0  0  0  0  0  0  0
    5.3579    6.8751    5.3044 O   0  0  0  0  0  0  0  0  0  0  0  0
    7.5379    7.0126    6.2007 C   0  0  0  0  0  0  0  0  0  0  0  0
    5.6534    3.4693    3.6431 C   0  0  0  0  0  0  0  0  0  0  0  0
    6.5664    2.8370    4.0978 O   0  0  0  0  0  0  0  0  0  0  0  0
    4.4532    2.8279    3.3136 N   0  0  0  0  0  0  0  0  0  0  0  0
    4.2471    1.4028    3.6155 C   0  0  0  0  0  0  0  0  0  0  0  0
    2.7641    1.1174    3.7856 C   0  0  0  0  0  0  0  0  0  0  0  0
    2.0886    1.5425    2.5516 N   0  0  0  0  0  0  0  0  0  0  0  0
    0.9334    0.8718    2.1338 C   0  0  0  0  0  0  0  0  0  0  0  0
    0.5026   -0.0419    2.7815 O   0  0  0  0  0  0  0  0  0  0  0  0
    0.2244    1.3008    0.8595 C   0  0  0  0  0  0  0  0  0  0  0  0
    0.1946    0.1386   -0.1196 C   0  0  0  0  0  0  0  0  0  0  0  0
   -0.5143    0.5676   -1.3939 C   0  0  0  0  0  0  0  0  0  0  0  0
   -0.5442   -0.5947   -2.3730 C   0  0  0  0  0  0  0  0  0  0  0  0
   -1.9370    0.9894   -1.0647 C   0  0  0  0  0  0  0  0  0  0  0  0
    2.6379    2.6434    1.7464 C   0  0  0  0  0  0  0  0  0  0  0  0
    3.4060    3.6060    2.6381 C   0  0  0  0  0  0  0  0  0  0  0  0
  1  2  1  0
  2  3  2  0
  3  4  1  0
  4  5  2  0
  5  6  1  0
  6  7  2  0
  7  2  1  0
  4  8  1  0
  8  9  1  0
  9 10  1  0
 10 11  2  0
 10 12  1  0
  8 13  1  0
 13 14  2  0
 13 15  1  0
 15 16  1  0
 16 17  1  0
 17 18  1  0
 18 19  1  0
 19 20  2  0
 19 21  1  0
 21 22  1  0
 22 23  1  0
 23 24  1  0
 23 25  1  0
 18 26  1  0
 26 27  1  0
 27 15  1  0
M  END
$$$$
s_2708____13426432____13973982
     RDKit          3D

 25 27  0  0  0  0  0  0  0  0999 V2000
   -3.6696    0.2225   -1.8054 F   0  0  0  0  0  0  0  0  0  0  0  0
   -2.3452    0.1363   -1.8908 C   0  0  0  0  0  0  0  0  0  0  0  0
   -1.7743   -0.7603   -2.7881 C   0  0  0  0  0  0  0  0  0  0  0  0
   -0.3881   -0.8415   -2.8687 C   0  0  0  0  0  0  0  0  0  0  0  0
    0.1739   -1.7088   -3.7371 O   0  0  0  0  0  0  0  0  0  0  0  0
    0.4266   -0.0446   -2.0715 C   0  0  0  0  0  0  0  0  0  0  0  0
   -0.1699    0.8435   -1.1832 C   0  0  0  0  0  0  0  0  0  0  0  0
   -1.5531    0.9444   -1.0822 C   0  0  0  0  0  0  0  0  0  0  0  0
    0.7075    1.7208   -0.3059 C   0  0  0  0  0  0  0  0  0  0  0  0
    1.0000    1.0000    1.0000 C   0  0  0  0  0  0  0  0  0  0  0  0
    1.8487    1.8487    1.8487 N   0  0  0  0  0  0  0  0  0  0  0  0
    1.2902    2.8669    2.5755 C   0  0  0  0  0  0  0  0  0  0  0  0
    0.1081    3.0659    2.5193 O   0  0  0  0  0  0  0  0  0  0  0  0
    2.0811    3.6579    3.3665 N   0  0  0  0  0  0  0  0  0  0  0  0
    1.4816    4.7508    4.1467 C   0  0  0  0  0  0  0  0  0  0  0  0
    2.0442    6.1161    3.7822 C   0  0  0  0  0  0  0  0  0  0  0  0
    1.3235    7.1107    4.6827 C   0  0  0  0  0  0  0  0  0  0  0  0
    1.5707    6.8661    6.0608 O   0  0  0  0  0  0  0  0  0  0  0  0
    1.0859    5.5863    6.4489 C   0  0  0  0  0  0  0  0  0  0  0  0
    1.6818    4.4550    5.6247 C   0  0  0  0  0  0  0  0  0  0  0  0
    3.5545    6.1478    3.9763 C   0  0  0  0  0  0  0  0  0  0  0  0
    4.1602    7.4977    3.6269 C   0  0  0  0  0  0  0  0  0  0  0  0
    3.8505    7.7988    2.1683 C   0  0  0  0  0  0  0  0  0  0  0  0
    2.3565    7.7550    1.8810 C   0  0  0  0  0  0  0  0  0  0  0  0
    1.7645    6.4231    2.3167 C   0  0  0  0  0  0  0  0  0  0  0  0
  1  2  1  0
  2  3  2  0
  3  4  1  0
  4  5  1  0
  4  6  2  0
  6  7  1  0
  7  8  2  0
  8  2  1  0
  7  9  1  0
  9 10  1  0
 10 11  1  0
 11 12  1  0
 12 13  2  0
 12 14  1  0
 14 15  1  0
 15 16  1  0
 16 17  1  0
 17 18  1  0
 18 19  1  0
 19 20  1  0
 20 15  1  0
 16 21  1  0
 21 22  1  0
 22 23  1  0
 23 24  1  0
 24 25  1  0
 25 16  1  0
M  END
$$$$
s_527a____8333304____15715224
     RDKit          3D

 30 31  0  0  0  0  0  0  0  0999 V2000
    4.0875    3.1805    0.5999 O   0  0  0  0  0  0  0  0  0  0  0  0
    3.7976    2.9660    1.7445 C   0  0  0  0  0  0  0  0  0  0  0  0
    4.2343    3.7599    2.6906 O   0  0  0  0  0  0  0  0  0  0  0  0
    5.0507    4.8743    2.3618 C   0  0  0  0  0  0  0  0  0  0  0  0
    6.3173    4.3895    1.6756 C   0  0  0  0  0  0  0  0  0  0  0  0
    4.2907    5.8008    1.4267 C   0  0  0  0  0  0  0  0  0  0  0  0
    5.4179    5.6254    3.6312 C   0  0  0  0  0  0  0  0  0  0  0  0
    3.0100    1.8909    2.0617 N   0  0  0  0  0  0  0  0  0  0  0  0
    2.5200    1.0000    1.0000 C   0  0  0  0  0  0  0  0  0  0  0  0
    1.0000    1.0000    1.0000 C   0  0  0  0  0  0  0  0  0  0  0  0
    0.4000    1.0000   -0.0392 O   0  0  0  0  0  0  0  0  0  0  0  0
    0.3150    1.0000    2.1865 N   0  0  0  0  0  0  0  0  0  0  0  0
   -1.1580    1.0000    2.1865 C   0  0  0  0  0  0  0  0  0  0  0  0
   -1.6824   -0.2360    2.9001 C   0  0  0  0  0  0  0  0  0  0  0  0
   -3.2019   -0.1842    2.9253 C   0  0  0  0  0  0  0  0  0  0  0  0
   -3.6687    0.9882    3.5821 O   0  0  0  0  0  0  0  0  0  0  0  0
   -3.2193    2.1772    2.9479 C   0  0  0  0  0  0  0  0  0  0  0  0
   -1.6999    2.2211    2.9124 C   0  0  0  0  0  0  0  0  0  0  0  0
   -3.6928   -1.4486    3.6125 C   0  0  0  0  0  0  0  0  0  0  0  0
   -5.2126   -1.4709    3.6068 C   0  0  0  0  0  0  0  0  0  0  0  0
   -5.7143   -1.4465    2.1722 C   0  0  0  0  0  0  0  0  0  0  0  0
   -5.7034   -2.7349    4.2937 C   0  0  0  0  0  0  0  0  0  0  0  0
    3.0267   -0.4113    1.2488 C   0  0  0  0  0  0  0  0  0  0  0  0
    4.5465   -0.4113    1.2488 C   0  0  0  0  0  0  0  0  0  0  0  0
    5.2263   -0.6179    0.0772 C   0  0  0  0  0  0  0  0  0  0  0  0
    6.6459   -0.6122    0.1122 C   0  0  0  0  0  0  0  0  0  0  0  0
    7.2540   -0.7950   -0.9300 O   0  0  0  0  0  0  0  0  0  0  0  0
    7.3008   -0.4036    1.2982 N   0  0  0  0  0  0  0  0  0  0  0  0
    6.6090   -0.1977    2.4637 C   0  0  0  0  0  0  0  0  0  0  0  0
    5.2380   -0.1955    2.4707 C   0  0  0  0  0  0  0  0  0  0  0  0
  1  2  2  0
  2  3  1  0
  3  4  1  0
  4  5  1  0
  4  6  1  0
  4  7  1  0
  2  8  1  0
  8  9  1  0
  9 10  1  0
 10 11  2  0
 10 12  1  0
 12 13  1  0
 13 14  1  0
 14 15  1  0
 15 16  1  0
 16 17  1  0
 17 18  1  0
 18 13  1  0
 15 19  1  0
 19 20  1  0
 20 21  1  0
 20 22  1  0
  9 23  1  0
 23 24  1  0
 24 25  2  0
 25 26  1  0
 26 27  2  0
 26 28  1  0
 28 29  1  0
 29 30  2  0
 30 24  1  0
M  END
$$$$
s_22____4903448____17057108
     RDKit          3D

 31 32  0  0  0  0  0  0  0  0999 V2000
    4.9061    5.0918    1.9423 O   0  0  0  0  0  0  0  0  0  0  0  0
    3.8017    4.6453    1.7979 C   0  0  0  0  0  0  0  0  0  0  0  0
    3.4072    3.5117    2.5135 N   0  0  0  0  0  0  0  0  0  0  0  0
    4.3351    2.9624    3.5155 C   0  0  0  0  0  0  0  0  0  0  0  0
    4.2152    1.4493    3.6340 C   0  0  0  0  0  0  0  0  0  0  0  0
    2.7657    0.9893    3.7020 C   0  0  0  0  0  0  0  0  0  0  0  0
    2.7627   -0.5307    3.7331 C   0  0  0  0  0  0  0  0  0  0  0  0
    1.4948   -0.9927    4.1750 O   0  0  0  0  0  0  0  0  0  0  0  0
    1.4920   -2.4124    4.2040 C   0  0  0  0  0  0  0  0  0  0  0  0
    0.1347   -2.9069    4.6770 C   0  0  0  0  0  0  0  0  0  0  0  0
    0.1318   -4.4265    4.7080 C   0  0  0  0  0  0  0  0  0  0  0  0
   -1.2255   -4.9210    5.1810 C   0  0  0  0  0  0  0  0  0  0  0  0
    0.4082   -4.9624    3.3127 C   0  0  0  0  0  0  0  0  0  0  0  0
    2.0810    1.4150    2.4110 C   0  0  0  0  0  0  0  0  0  0  0  0
    2.0878    2.9259    2.2239 C   0  0  0  0  0  0  0  0  0  0  0  0
    2.8318    5.3129    0.8365 C   0  0  0  0  0  0  0  0  0  0  0  0
    3.1965    6.7279    0.6765 N   0  0  0  0  0  0  0  0  0  0  0  0
    2.3015    7.7084    1.0149 C   0  0  0  0  0  0  0  0  0  0  0  0
    1.2556    7.4159    1.5252 O   0  0  0  0  0  0  0  0  0  0  0  0
    2.6334    9.1668    0.7439 C   0  0  0  0  0  0  0  0  0  0  0  0
    1.3645    9.9134    0.3660 C   0  0  0  0  0  0  0  0  0  0  0  0
    1.4806   11.3641    0.8047 C   0  0  0  0  0  0  0  0  0  0  0  0
    1.1711    9.8536   -1.1405 C   0  0  0  0  0  0  0  0  0  0  0  0
    2.8969    4.6171   -0.5133 C   0  0  0  0  0  0  0  0  0  0  0  0
    1.6072    4.8708   -1.2768 C   0  0  0  0  0  0  0  0  0  0  0  0
    0.5408    3.9897   -1.1309 C   0  0  0  0  0  0  0  0  0  0  0  0
   -0.6414    4.2183   -1.8269 C   0  0  0  0  0  0  0  0  0  0  0  0
   -0.7423    5.3273   -2.6610 C   0  0  0  0  0  0  0  0  0  0  0  0
   -1.8878    5.5527   -3.3386 O   0  0  0  0  0  0  0  0  0  0  0  0
    0.3213    6.2114   -2.8107 C   0  0  0  0  0  0  0  0  0  0  0  0
    1.5010    5.9782   -2.1120 C   0  0  0  0  0  0  0  0  0  0  0  0
  1  2  2  0
  2  3  1  0
  3  4  1  0
  4  5  1  0
  5  6  1  0
  6  7  1  0
  7  8  1  0
  8  9  1  0
  9 10  1  0
 10 11  1  0
 11 12  1  0
 11 13  1  0
  6 14  1  0
 14 15  1  0
 15  3  1  0
  2 16  1  0
 16 17  1  0
 17 18  1  0
 18 19  2  0
 18 20  1  0
 20 21  1  0
 21 22  1  0
 21 23  1  0
 16 24  1  0
 24 25  1  0
 25 26  2  0
 26 27  1  0
 27 28  2  0
 28 29  1  0
 28 30  1  0
 30 31  2  0
 31 25  1  0
M  END
$$$$
s_22____4836988____17513450
     RDKit          3D

 26 27  0  0  0  0  0  0  0  0999 V2000
    0.4000    0.4614    1.8888 O   0  0  0  0  0  0  0  0  0  0  0  0
    1.0000    1.0000    1.0000 C   0  0  0  0  0  0  0  0  0  0  0  0
    2.3991    1.0000    1.0000 N   0  0  0  0  0  0  0  0  0  0  0  0
    3.1035    1.7647   -0.0441 C   0  0  0  0  0  0  0  0  0  0  0  0
    4.4040    1.1465   -0.5557 C   0  0  0  0  0  0  0  0  0  0  0  0
    5.6057    1.3790    0.2684 N   0  0  0  0  0  0  0  0  0  0  0  0
    6.7980    1.0340   -0.5196 C   0  0  0  0  0  0  0  0  0  0  0  0
    6.8221    1.8648   -1.7922 C   0  0  0  0  0  0  0  0  0  0  0  0
    6.8621    3.3411   -1.4328 C   0  0  0  0  0  0  0  0  0  0  0  0
    8.0548    1.5081   -2.6069 C   0  0  0  0  0  0  0  0  0  0  0  0
    5.6613    0.6374    1.5431 C   0  0  0  0  0  0  0  0  0  0  0  0
    4.4712    0.8812    2.4664 C   0  0  0  0  0  0  0  0  0  0  0  0
    3.1470    0.2582    2.0304 C   0  0  0  0  0  0  0  0  0  0  0  0
    0.2400    1.6822   -0.1258 C   0  0  0  0  0  0  0  0  0  0  0  0
   -0.7765    2.5793    0.4425 N   0  0  0  0  0  0  0  0  0  0  0  0
   -0.7381    3.9205    0.1659 C   0  0  0  0  0  0  0  0  0  0  0  0
    0.1253    4.3631   -0.5402 O   0  0  0  0  0  0  0  0  0  0  0  0
   -1.7892    4.8481    0.7535 C   0  0  0  0  0  0  0  0  0  0  0  0
   -0.4378    0.6310   -0.9894 C   0  0  0  0  0  0  0  0  0  0  0  0
   -0.7109    1.2077   -2.3690 C   0  0  0  0  0  0  0  0  0  0  0  0
    0.2494    1.0787   -3.3670 C   0  0  0  0  0  0  0  0  0  0  0  0
    0.0036    1.6042   -4.6311 C   0  0  0  0  0  0  0  0  0  0  0  0
   -1.2016    2.2527   -4.8813 C   0  0  0  0  0  0  0  0  0  0  0  0
   -1.4441    2.7645   -6.1066 O   0  0  0  0  0  0  0  0  0  0  0  0
   -2.1652    2.3848   -3.8866 C   0  0  0  0  0  0  0  0  0  0  0  0
   -1.9143    1.8570   -2.6245 C   0  0  0  0  0  0  0  0  0  0  0  0
  1  2  2  0
  2  3  1  0
  3  4  1  0
  4  5  1  0
  5  6  1  0
  6  7  1  0
  7  8  1  0
  8  9  1  0
  8 10  1  0
  6 11  1  0
 11 12  1  0
 12 13  1  0
 13  3  1  0
  2 14  1  0
 14 15  1  0
 15 16  1  0
 16 17  2  0
 16 18  1  0
 14 19  1  0
 19 20  1  0
 20 21  2  0
 21 22  1  0
 22 23  2  0
 23 24  1  0
 23 25  1  0
 25 26  2  0
 26 20  1  0
M  CHG  1   6   1
M  END
$$$$
s_487a____8333298____9044632
     RDKit          3D

 24 25  0  0  0  0  0  0  0  0999 V2000
    0.4000   -0.0392    1.0000 O   0  0  0  0  0  0  0  0  0  0  0  0
    1.0000    1.0000    1.0000 C   0  0  0  0  0  0  0  0  0  0  0  0
    2.3700    1.0000    1.0000 N   0  0  0  0  0  0  0  0  0  0  0  0
    3.0701   -0.0502    1.6063 C   0  0  0  0  0  0  0  0  0  0  0  0
    2.8933   -0.3075    2.9617 C   0  0  0  0  0  0  0  0  0  0  0  0
    3.5980   -1.3550    3.5460 C   0  0  0  0  0  0  0  0  0  0  0  0
    3.4204   -1.6145    4.9097 N   0  0  0  0  0  0  0  0  0  0  0  0
    4.5101   -1.7986    5.7195 C   0  0  0  0  0  0  0  0  0  0  0  0
    5.5452   -1.2463    5.4673 O   0  0  0  0  0  0  0  0  0  0  0  0
    4.4079   -2.7023    6.9373 C   0  0  0  0  0  0  0  0  0  0  0  0
    4.4677   -2.1411    2.7975 C   0  0  0  0  0  0  0  0  0  0  0  0
    4.6289   -1.8654    1.4438 C   0  0  0  0  0  0  0  0  0  0  0  0
    3.9351   -0.8232    0.8386 C   0  0  0  0  0  0  0  0  0  0  0  0
    0.3150    2.1865    1.0000 N   0  0  0  0  0  0  0  0  0  0  0  0
   -1.1580    2.1865    1.0000 C   0  0  0  0  0  0  0  0  0  0  0  0
   -1.6824    2.9001    2.2360 C   0  0  0  0  0  0  0  0  0  0  0  0
   -3.2019    2.9253    2.1842 C   0  0  0  0  0  0  0  0  0  0  0  0
   -3.6687    3.5821    1.0118 O   0  0  0  0  0  0  0  0  0  0  0  0
   -3.2193    2.9479   -0.1772 C   0  0  0  0  0  0  0  0  0  0  0  0
   -1.6999    2.9124   -0.2211 C   0  0  0  0  0  0  0  0  0  0  0  0
   -3.6928    3.6125    3.4486 C   0  0  0  0  0  0  0  0  0  0  0  0
   -5.2126    3.6068    3.4709 C   0  0  0  0  0  0  0  0  0  0  0  0
   -5.7143    2.1722    3.4465 C   0  0  0  0  0  0  0  0  0  0  0  0
   -5.7034    4.2937    4.7349 C   0  0  0  0  0  0  0  0  0  0  0  0
  1  2  2  0
  2  3  1  0
  3  4  1  0
  4  5  2  0
  5  6  1  0
  6  7  1  0
  7  8  1  0
  8  9  2  0
  8 10  1  0
  6 11  2  0
 11 12  1  0
 12 13  2  0
 13  4  1  0
  2 14  1  0
 14 15  1  0
 15 16  1  0
 16 17  1  0
 17 18  1  0
 18 19  1  0
 19 20  1  0
 20 15  1  0
 17 21  1  0
 21 22  1  0
 22 23  1  0
 22 24  1  0
M  END
$$$$
s_22____10643476____17513450
     RDKit          3D

 26 26  0  0  0  0  0  0  0  0999 V2000
    6.8333   -0.3146   -1.0129 F   0  0  0  0  0  0  0  0  0  0  0  0
    6.3900   -1.4005   -0.3859 C   0  0  0  0  0  0  0  0  0  0  0  0
    6.8333   -1.4005    0.8680 F   0  0  0  0  0  0  0  0  0  0  0  0
    6.8333   -2.4864   -1.0129 F   0  0  0  0  0  0  0  0  0  0  0  0
    4.8700   -1.4005   -0.3859 C   0  0  0  0  0  0  0  0  0  0  0  0
    4.3967   -0.2411    0.2835 O   0  0  0  0  0  0  0  0  0  0  0  0
    2.9767   -0.2411    0.2835 C   0  0  0  0  0  0  0  0  0  0  0  0
    2.4700    1.0000    1.0000 C   0  0  0  0  0  0  0  0  0  0  0  0
    1.0000    1.0000    1.0000 N   0  0  0  0  0  0  0  0  0  0  0  0
    0.3150    1.0000    2.1865 C   0  0  0  0  0  0  0  0  0  0  0  0
    0.9150    1.0000    3.2257 O   0  0  0  0  0  0  0  0  0  0  0  0
   -1.2050    1.0000    2.1865 C   0  0  0  0  0  0  0  0  0  0  0  0
   -1.6950    1.0000    3.5724 N   0  0  0  0  0  0  0  0  0  0  0  0
   -2.4826    2.0275    4.0205 C   0  0  0  0  0  0  0  0  0  0  0  0
   -2.7725    2.9275    3.2816 O   0  0  0  0  0  0  0  0  0  0  0  0
   -2.9893    2.0275    5.4535 C   0  0  0  0  0  0  0  0  0  0  0  0
   -1.7117   -0.2411    1.4699 C   0  0  0  0  0  0  0  0  0  0  0  0
   -3.2317   -0.2411    1.4699 C   0  0  0  0  0  0  0  0  0  0  0  0
   -3.9161    0.3644    0.4212 C   0  0  0  0  0  0  0  0  0  0  0  0
   -5.3069    0.3662    0.4166 C   0  0  0  0  0  0  0  0  0  0  0  0
   -5.9966   -0.2391    1.4624 C   0  0  0  0  0  0  0  0  0  0  0  0
   -7.3464   -0.2393    1.4621 O   0  0  0  0  0  0  0  0  0  0  0  0
   -5.3170   -0.8457    2.5138 C   0  0  0  0  0  0  0  0  0  0  0  0
   -3.9262   -0.8449    2.5131 C   0  0  0  0  0  0  0  0  0  0  0  0
    2.9767    2.2411    0.2835 C   0  0  0  0  0  0  0  0  0  0  0  0
    2.4700    3.4821    1.0000 C   0  0  0  0  0  0  0  0  0  0  0  0
  1  2  1  0
  2  3  1  0
  2  4  1  0
  2  5  1  0
  5  6  1  0
  6  7  1  0
  7  8  1  0
  8  9  1  0
  9 10  1  0
 10 11  2  0
 10 12  1  0
 12 13  1  0
 13 14  1  0
 14 15  2  0
 14 16  1  0
 12 17  1  0
 17 18  1  0
 18 19  2  0
 19 20  1  0
 20 21  2  0
 21 22  1  0
 21 23  1  0
 23 24  2  0
 24 18  1  0
  8 25  1  0
 25 26  1  0
M  END
$$$$
s_22____9281432____14260948
     RDKit          3D

 31 33  0  0  0  0  0  0  0  0999 V2000
    0.2200    3.4535   -3.1265 F   0  0  0  0  0  0  0  0  0  0  0  0
   -0.2112    3.0688   -1.9286 C   0  0  0  0  0  0  0  0  0  0  0  0
    0.5934    2.2667   -1.1269 C   0  0  0  0  0  0  0  0  0  0  0  0
    0.1228    1.8772    0.1228 C   0  0  0  0  0  0  0  0  0  0  0  0
   -1.1305    2.2771    0.5757 C   0  0  0  0  0  0  0  0  0  0  0  0
   -1.9257    3.0804   -0.2351 C   0  0  0  0  0  0  0  0  0  0  0  0
   -1.4664    3.4756   -1.4878 C   0  0  0  0  0  0  0  0  0  0  0  0
    1.0000    1.0000    1.0000 C   0  0  0  0  0  0  0  0  0  0  0  0
    1.8487    0.1513    0.1513 N   0  0  0  0  0  0  0  0  0  0  0  0
    2.2442   -1.0831    0.5948 C   0  0  0  0  0  0  0  0  0  0  0  0
    1.8978   -1.4716    1.6760 O   0  0  0  0  0  0  0  0  0  0  0  0
    3.0005   -1.8395   -0.1616 O   0  0  0  0  0  0  0  0  0  0  0  0
    3.4104   -3.1190    0.2981 C   0  0  0  0  0  0  0  0  0  0  0  0
    2.3866   -4.1605   -0.1230 C   0  0  0  0  0  0  0  0  0  0  0  0
    4.7623   -3.4647   -0.3047 C   0  0  0  0  0  0  0  0  0  0  0  0
    3.5212   -3.1012    1.8139 C   0  0  0  0  0  0  0  0  0  0  0  0
    1.8776    1.8776    1.8776 C   0  0  0  0  0  0  0  0  0  0  0  0
    1.0000    2.7551    2.7551 C   0  0  0  0  0  0  0  0  0  0  0  0
    0.6536    3.8364    2.3667 O   0  0  0  0  0  0  0  0  0  0  0  0
    0.6045    2.3117    3.9896 N   0  0  0  0  0  0  0  0  0  0  0  0
   -0.2442    3.1604    4.8383 C   0  0  0  0  0  0  0  0  0  0  0  0
   -1.7101    2.8672    4.5451 C   0  0  0  0  0  0  0  0  0  0  0  0
   -2.0166    1.5052    4.8090 O   0  0  0  0  0  0  0  0  0  0  0  0
   -3.3310    1.3948    5.3488 C   0  0  0  0  0  0  0  0  0  0  0  0
   -3.8385    2.8303    5.4074 C   0  0  0  0  0  0  0  0  0  0  0  0
   -2.5635    3.6424    5.5277 C   0  0  0  0  0  0  0  0  0  0  0  0
   -4.2798    0.5774    4.4832 C   0  0  0  0  0  0  0  0  0  0  0  0
   -3.7877   -0.8559    4.3620 C   0  0  0  0  0  0  0  0  0  0  0  0
   -3.7052   -1.5116    5.7310 C   0  0  0  0  0  0  0  0  0  0  0  0
   -2.7942   -0.6983    6.6374 C   0  0  0  0  0  0  0  0  0  0  0  0
   -3.3239    0.7248    6.7146 C   0  0  0  0  0  0  0  0  0  0  0  0
  1  2  1  0
  2  3  2  0
  3  4  1  0
  4  5  2  0
  5  6  1  0
  6  7  2  0
  7  2  1  0
  4  8  1  0
  8  9  1  0
  9 10  1  0
 10 11  2  0
 10 12  1  0
 12 13  1  0
 13 14  1  0
 13 15  1  0
 13 16  1  0
  8 17  1  0
 17 18  1  0
 18 19  2  0
 18 20  1  0
 20 21  1  0
 21 22  1  0
 22 23  1  0
 23 24  1  0
 24 25  1  0
 25 26  1  0
 26 22  1  0
 24 27  1  0
 27 28  1  0
 28 29  1  0
 29 30  1  0
 30 31  1  0
 31 24  1  0
M  END
$$$$
s_512____12222512____13941176
     RDKit          3D

 27 28  0  0  0  0  0  0  0  0999 V2000
   12.6335    1.6922    8.2801 Cl  0  0  0  0  0  0  0  0  0  0  0  0
   11.2346    0.8894    7.5274 C   0  0  0  0  0  0  0  0  0  0  0  0
   10.0505    0.7488    8.2425 C   0  0  0  0  0  0  0  0  0  0  0  0
    8.9549    0.1213    7.6582 C   0  0  0  0  0  0  0  0  0  0  0  0
    9.0618   -0.3588    6.3573 C   0  0  0  0  0  0  0  0  0  0  0  0
   10.2458   -0.2186    5.6418 C   0  0  0  0  0  0  0  0  0  0  0  0
   11.3417    0.4090    6.2263 C   0  0  0  0  0  0  0  0  0  0  0  0
    7.8704   -1.0460    5.7117 C   0  0  0  0  0  0  0  0  0  0  0  0
    6.6740   -0.2075    5.8740 N   0  0  0  0  0  0  0  0  0  0  0  0
    6.0035    0.2503    4.7704 C   0  0  0  0  0  0  0  0  0  0  0  0
    6.3929   -0.0333    3.6713 O   0  0  0  0  0  0  0  0  0  0  0  0
    4.8884    1.0318    4.9217 N   0  0  0  0  0  0  0  0  0  0  0  0
    4.1692    1.5228    3.7379 C   0  0  0  0  0  0  0  0  0  0  0  0
    4.1551    3.0429    3.7333 C   0  0  0  0  0  0  0  0  0  0  0  0
    3.4088    3.5546    2.5118 C   0  0  0  0  0  0  0  0  0  0  0  0
    1.9831    3.0265    2.5092 C   0  0  0  0  0  0  0  0  0  0  0  0
    1.2946    3.4962    1.3600 O   0  0  0  0  0  0  0  0  0  0  0  0
   -0.0349    2.9973    1.3678 C   0  0  0  0  0  0  0  0  0  0  0  0
   -0.7721    3.5002    0.1373 C   0  0  0  0  0  0  0  0  0  0  0  0
   -0.8011    5.0198    0.1499 C   0  0  0  0  0  0  0  0  0  0  0  0
   -1.5383    5.5227   -1.0805 C   0  0  0  0  0  0  0  0  0  0  0  0
   -1.5160    5.5026    1.4014 C   0  0  0  0  0  0  0  0  0  0  0  0
    2.0046    1.5065    2.5106 C   0  0  0  0  0  0  0  0  0  0  0  0
    2.7461    0.9884    3.7324 C   0  0  0  0  0  0  0  0  0  0  0  0
    7.6397   -2.3924    6.3782 C   0  0  0  0  0  0  0  0  0  0  0  0
    8.5251   -2.9152    6.9969 O   0  0  0  0  0  0  0  0  0  0  0  0
    6.4209   -3.0091    6.2727 N   0  0  0  0  0  0  0  0  0  0  0  0
  1  2  1  0
  2  3  2  0
  3  4  1  0
  4  5  2  0
  5  6  1  0
  6  7  2  0
  7  2  1  0
  5  8  1  0
  8  9  1  0
  9 10  1  0
 10 11  2  0
 10 12  1  0
 12 13  1  0
 13 14  1  0
 14 15  1  0
 15 16  1  0
 16 17  1  0
 17 18  1  0
 18 19  1  0
 19 20  1  0
 20 21  1  0
 20 22  1  0
 16 23  1  0
 23 24  1  0
 24 13  1  0
  8 25  1  0
 25 26  2  0
 25 27  1  0
M  END
$$$$
s_22____8333288____10954548
     RDKit          3D

 25 27  0  0  0  0  0  0  0  0999 V2000
    2.9700    2.0353    1.0906 O   0  0  0  0  0  0  0  0  0  0  0  0
    2.3700    1.0000    1.0000 C   0  0  0  0  0  0  0  0  0  0  0  0
    1.0000    1.0000    1.0000 N   0  0  0  0  0  0  0  0  0  0  0  0
    0.2628    2.2769    1.0000 C   0  0  0  0  0  0  0  0  0  0  0  0
   -0.6190    2.3785    2.2347 C   0  0  0  0  0  0  0  0  0  0  0  0
   -1.4001    3.6816    2.1739 C   0  0  0  0  0  0  0  0  0  0  0  0
   -2.1999    3.7517    0.9997 O   0  0  0  0  0  0  0  0  0  0  0  0
   -1.4235    3.6628   -0.1873 C   0  0  0  0  0  0  0  0  0  0  0  0
   -0.6296    2.3656   -0.2284 C   0  0  0  0  0  0  0  0  0  0  0  0
   -2.2437    3.7757    3.4352 C   0  0  0  0  0  0  0  0  0  0  0  0
   -2.9939    5.0976    3.4456 C   0  0  0  0  0  0  0  0  0  0  0  0
   -3.8374    5.1917    4.7066 C   0  0  0  0  0  0  0  0  0  0  0  0
   -1.9981    6.2456    3.4153 C   0  0  0  0  0  0  0  0  0  0  0  0
    3.1300   -0.3113    0.8853 C   0  0  0  0  0  0  0  0  0  0  0  0
    4.5670   -0.1053    1.3359 C   0  0  0  0  0  0  0  0  0  0  0  0
    4.5936    0.1832    2.8281 C   0  0  0  0  0  0  0  0  0  0  0  0
    5.3892    1.2170    3.3112 C   0  0  0  0  0  0  0  0  0  0  0  0
    5.4161    1.4850    4.6757 C   0  0  0  0  0  0  0  0  0  0  0  0
    4.6455    0.7148    5.5409 C   0  0  0  0  0  0  0  0  0  0  0  0
    4.6689    0.9714    6.8659 O   0  0  0  0  0  0  0  0  0  0  0  0
    3.8484   -0.3204    5.0630 C   0  0  0  0  0  0  0  0  0  0  0  0
    3.8249   -0.5838    3.6975 C   0  0  0  0  0  0  0  0  0  0  0  0
    5.3736   -1.3618    1.0480 C   0  0  0  0  0  0  0  0  0  0  0  0
    5.3698   -1.6785   -0.4190 C   0  0  0  0  0  0  0  0  0  0  0  0
    4.5222   -2.4825    0.5247 C   0  0  0  0  0  0  0  0  0  0  0  0
  1  2  2  0
  2  3  1  0
  3  4  1  0
  4  5  1  0
  5  6  1  0
  6  7  1  0
  7  8  1  0
  8  9  1  0
  9  4  1  0
  6 10  1  0
 10 11  1  0
 11 12  1  0
 11 13  1  0
  2 14  1  0
 14 15  1  0
 15 16  1  0
 16 17  2  0
 17 18  1  0
 18 19  2  0
 19 20  1  0
 19 21  1  0
 21 22  2  0
 22 16  1  0
 15 23  1  0
 23 24  1  0
 24 25  1  0
 25 23  1  0
M  END
$$$$
s_22____9398024____17513450
     RDKit          3D

 30 32  0  0  0  0  0  0  0  0999 V2000
    0.8607    0.6446    3.1943 O   0  0  0  0  0  0  0  0  0  0  0  0
    0.3150    1.0000    2.1865 C   0  0  0  0  0  0  0  0  0  0  0  0
    1.0000    1.0000    1.0000 N   0  0  0  0  0  0  0  0  0  0  0  0
    2.4700    1.0000    1.0000 C   0  0  0  0  0  0  0  0  0  0  0  0
    2.9784    2.4326    1.1253 C   0  0  0  0  0  0  0  0  0  0  0  0
    2.1608    3.4079    0.3840 N   0  0  0  0  0  0  0  0  0  0  0  0
    2.5144    4.7913    0.7361 C   0  0  0  0  0  0  0  0  0  0  0  0
    1.6500    5.7696   -0.0431 C   0  0  0  0  0  0  0  0  0  0  0  0
    1.7819    5.5456   -1.4397 O   0  0  0  0  0  0  0  0  0  0  0  0
    1.4324    4.2170   -1.8036 C   0  0  0  0  0  0  0  0  0  0  0  0
    2.2967    3.2055   -1.0668 C   0  0  0  0  0  0  0  0  0  0  0  0
    4.4510    2.6325    0.8597 C   0  0  0  0  0  0  0  0  0  0  0  0
    4.6963    2.2691    2.3091 C   0  0  0  0  0  0  0  0  0  0  0  0
    5.7222    3.0588    2.8941 O   0  0  0  0  0  0  0  0  0  0  0  0
    5.6767    2.9229    4.3069 C   0  0  0  0  0  0  0  0  0  0  0  0
    6.7743    3.7678    4.9328 C   0  0  0  0  0  0  0  0  0  0  0  0
    3.3349    2.8767    2.5267 C   0  0  0  0  0  0  0  0  0  0  0  0
   -1.1362    1.4502    2.2261 C   0  0  0  0  0  0  0  0  0  0  0  0
   -1.6403    1.3584    3.6040 N   0  0  0  0  0  0  0  0  0  0  0  0
   -2.0996    2.4806    4.2416 C   0  0  0  0  0  0  0  0  0  0  0  0
   -2.0906    3.5385    3.6753 O   0  0  0  0  0  0  0  0  0  0  0  0
   -2.6208    2.3856    5.6663 C   0  0  0  0  0  0  0  0  0  0  0  0
   -1.9689    0.5566    1.3214 C   0  0  0  0  0  0  0  0  0  0  0  0
   -3.4202    1.0068    1.3611 C   0  0  0  0  0  0  0  0  0  0  0  0
   -3.8669    1.9579    0.4496 C   0  0  0  0  0  0  0  0  0  0  0  0
   -5.1942    2.3723    0.4817 C   0  0  0  0  0  0  0  0  0  0  0  0
   -6.0592    1.8290    1.4262 C   0  0  0  0  0  0  0  0  0  0  0  0
   -7.3481    2.2286    1.4611 O   0  0  0  0  0  0  0  0  0  0  0  0
   -5.6175    0.8778    2.3403 C   0  0  0  0  0  0  0  0  0  0  0  0
   -4.2894    0.4667    2.3034 C   0  0  0  0  0  0  0  0  0  0  0  0
  1  2  2  0
  2  3  1  0
  3  4  1  0
  4  5  1  0
  5  6  1  0
  6  7  1  0
  7  8  1  0
  8  9  1  0
  9 10  1  0
 10 11  1  0
 11  6  1  0
  5 12  1  0
 12 13  1  0
 13 14  1  0
 14 15  1  0
 15 16  1  0
 13 17  1  0
 17  5  1  0
  2 18  1  0
 18 19  1  0
 19 20  1  0
 20 21  2  0
 20 22  1  0
 18 23  1  0
 23 24  1  0
 24 25  2  0
 25 26  1  0
 26 27  2  0
 27 28  1  0
 27 29  1  0
 29 30  2  0
 30 24  1  0
M  CHG  1   6   1
M  END
$$$$
s_22____7284248____3192126
     RDKit          3D

 28 29  0  0  0  0  0  0  0  0999 V2000
    2.5142   -0.7694    0.6117 O   0  0  0  0  0  0  0  0  0  0  0  0
    1.8776    0.1224    0.1224 C   0  0  0  0  0  0  0  0  0  0  0  0
    1.9417    0.3496   -1.2271 N   0  0  0  0  0  0  0  0  0  0  0  0
    2.7018   -0.5643   -2.0906 C   0  0  0  0  0  0  0  0  0  0  0  0
    3.8633    0.1180   -2.7835 C   0  0  0  0  0  0  0  0  0  0  0  0
    3.4891   -0.7394   -3.9762 C   0  0  0  0  0  0  0  0  0  0  0  0
    3.6179   -0.0523   -5.2122 O   0  0  0  0  0  0  0  0  0  0  0  0
    3.8719   -0.9880   -6.2497 C   0  0  0  0  0  0  0  0  0  0  0  0
    2.0713   -0.7231   -3.4537 C   0  0  0  0  0  0  0  0  0  0  0  0
    5.2156   -0.2415   -2.1899 C   0  0  0  0  0  0  0  0  0  0  0  0
    5.0276   -1.2728   -1.0892 C   0  0  0  0  0  0  0  0  0  0  0  0
    3.6945    1.6171   -2.9817 C   0  0  0  0  0  0  0  0  0  0  0  0
    4.7151    2.3584   -2.1336 C   0  0  0  0  0  0  0  0  0  0  0  0
    1.0000    1.0000    1.0000 C   0  0  0  0  0  0  0  0  0  0  0  0
    1.8776    1.8776    1.8776 C   0  0  0  0  0  0  0  0  0  0  0  0
    1.1805    2.1605    3.1405 N   0  0  0  0  0  0  0  0  0  0  0  0
    1.7378    1.7763    4.3315 C   0  0  0  0  0  0  0  0  0  0  0  0
    2.7951    1.2088    4.3439 O   0  0  0  0  0  0  0  0  0  0  0  0
    1.0170    2.0688    5.6374 C   0  0  0  0  0  0  0  0  0  0  0  0
    2.1702    3.1838    1.1565 C   0  0  0  0  0  0  0  0  0  0  0  0
    3.3641    3.8575    1.3948 C   0  0  0  0  0  0  0  0  0  0  0  0
    4.2734    3.3656    2.2635 O   0  0  0  0  0  0  0  0  0  0  0  0
    5.6501    3.6730    2.1002 C   0  0  0  0  0  0  0  0  0  0  0  0
    6.4535    3.0008    3.2016 C   0  0  0  0  0  0  0  0  0  0  0  0
    3.6318    5.0529    0.7352 C   0  0  0  0  0  0  0  0  0  0  0  0
    2.7057    5.5742   -0.1631 C   0  0  0  0  0  0  0  0  0  0  0  0
    1.5123    4.8999   -0.4015 C   0  0  0  0  0  0  0  0  0  0  0  0
    1.2450    3.7046    0.2579 C   0  0  0  0  0  0  0  0  0  0  0  0
  1  2  2  0
  2  3  1  0
  3  4  1  0
  4  5  1  0
  5  6  1  0
  6  7  1  0
  7  8  1  0
  6  9  1  0
  9  4  1  0
  5 10  1  0
 10 11  1  0
  5 12  1  0
 12 13  1  0
  2 14  1  0
 14 15  1  0
 15 16  1  0
 16 17  1  0
 17 18  2  0
 17 19  1  0
 15 20  1  0
 20 21  2  0
 21 22  1  0
 22 23  1  0
 23 24  1  0
 21 25  1  0
 25 26  2  0
 26 27  1  0
 27 28  2  0
 28 20  1  0
M  END
$$$$
s_2708____9281468____5535004
     RDKit          3D

 26 28  0  0  0  0  0  0  0  0999 V2000
    2.9700    2.0392    1.0000 O   0  0  0  0  0  0  0  0  0  0  0  0
    2.3700    1.0000    1.0000 C   0  0  0  0  0  0  0  0  0  0  0  0
    1.0000    1.0000    1.0000 N   0  0  0  0  0  0  0  0  0  0  0  0
    0.2650   -0.2731    1.0000 C   0  0  0  0  0  0  0  0  0  0  0  0
    0.0116   -0.7119    2.4334 C   0  0  0  0  0  0  0  0  0  0  0  0
   -1.1497   -0.3067    3.0830 C   0  0  0  0  0  0  0  0  0  0  0  0
   -1.3772   -0.7098    4.3948 C   0  0  0  0  0  0  0  0  0  0  0  0
   -0.4476   -1.5133    5.0467 C   0  0  0  0  0  0  0  0  0  0  0  0
    0.7086   -1.9124    4.3877 C   0  0  0  0  0  0  0  0  0  0  0  0
    0.9480   -1.5154    3.0762 C   0  0  0  0  0  0  0  0  0  0  0  0
    0.2650    2.2731    1.0000 C   0  0  0  0  0  0  0  0  0  0  0  0
    0.0117    2.7118   -0.4331 C   0  0  0  0  0  0  0  0  0  0  0  0
    1.2524    2.8816   -1.1025 O   0  0  0  0  0  0  0  0  0  0  0  0
   -0.7483    4.0282   -0.4331 C   0  0  0  0  0  0  0  0  0  0  0  0
    3.0550   -0.1865    1.0000 N   0  0  0  0  0  0  0  0  0  0  0  0
    4.5250   -0.1865    1.0000 C   0  0  0  0  0  0  0  0  0  0  0  0
    5.0328   -0.1865    2.4363 C   0  0  0  0  0  0  0  0  0  0  0  0
    4.5758   -1.3361    3.1349 O   0  0  0  0  0  0  0  0  0  0  0  0
    5.5826   -1.7959    4.0328 C   0  0  0  0  0  0  0  0  0  0  0  0
    6.7382   -0.8222    3.8371 C   0  0  0  0  0  0  0  0  0  0  0  0
    6.5403   -0.3331    2.4155 C   0  0  0  0  0  0  0  0  0  0  0  0
    5.1587   -1.7619    5.4945 C   0  0  0  0  0  0  0  0  0  0  0  0
    3.9770   -2.6896    5.7274 C   0  0  0  0  0  0  0  0  0  0  0  0
    4.3412   -4.1213    5.3688 C   0  0  0  0  0  0  0  0  0  0  0  0
    4.8081   -4.1871    3.9229 C   0  0  0  0  0  0  0  0  0  0  0  0
    5.9802   -3.2354    3.7429 C   0  0  0  0  0  0  0  0  0  0  0  0
  1  2  2  0
  2  3  1  0
  3  4  1  0
  4  5  1  0
  5  6  2  0
  6  7  1  0
  7  8  2  0
  8  9  1  0
  9 10  2  0
 10  5  1  0
  3 11  1  0
 11 12  1  0
 12 13  1  0
 12 14  1  0
  2 15  1  0
 15 16  1  0
 16 17  1  0
 17 18  1  0
 18 19  1  0
 19 20  1  0
 20 21  1  0
 21 17  1  0
 19 22  1  0
 22 23  1  0
 23 24  1  0
 24 25  1  0
 25 26  1  0
 26 19  1  0
M  END
$$$$
s_2430a____14422408____8643028
     RDKit          3D

 24 25  0  0  0  0  0  0  0  0999 V2000
   -1.8654    3.2942    3.2811 F   0  0  0  0  0  0  0  0  0  0  0  0
   -2.6586    2.2533    3.5168 C   0  0  0  0  0  0  0  0  0  0  0  0
   -3.5458    2.1808    2.5267 F   0  0  0  0  0  0  0  0  0  0  0  0
   -1.7895    1.0000    3.4586 C   0  0  0  0  0  0  0  0  0  0  0  0
   -1.0550    1.0000    2.1865 N   0  0  0  0  0  0  0  0  0  0  0  0
    0.3150    1.0000    2.1865 C   0  0  0  0  0  0  0  0  0  0  0  0
    0.9150    1.0000    3.2257 O   0  0  0  0  0  0  0  0  0  0  0  0
    1.0000    1.0000    1.0000 N   0  0  0  0  0  0  0  0  0  0  0  0
    2.4700    1.0000    1.0000 C   0  0  0  0  0  0  0  0  0  0  0  0
    2.9767    2.2411    0.2835 C   0  0  0  0  0  0  0  0  0  0  0  0
    2.6010    3.3976    1.0168 O   0  0  0  0  0  0  0  0  0  0  0  0
    2.9767   -0.2411    0.2835 C   0  0  0  0  0  0  0  0  0  0  0  0
    4.4851   -0.3381    0.4434 C   0  0  0  0  0  0  0  0  0  0  0  0
    5.0161   -0.8889    1.6051 C   0  0  0  0  0  0  0  0  0  0  0  0
    6.3958   -0.9805    1.7555 C   0  0  0  0  0  0  0  0  0  0  0  0
    7.2281   -0.5197    0.7403 C   0  0  0  0  0  0  0  0  0  0  0  0
    8.5676   -0.6063    0.8823 O   0  0  0  0  0  0  0  0  0  0  0  0
    6.7022    0.0323   -0.4233 C   0  0  0  0  0  0  0  0  0  0  0  0
    5.3218    0.1210   -0.5687 C   0  0  0  0  0  0  0  0  0  0  0  0
   -2.4929   -0.3503    3.5832 C   0  0  0  0  0  0  0  0  0  0  0  0
   -2.7632   -0.7630    5.0242 C   0  0  0  0  0  0  0  0  0  0  0  0
   -3.0534    0.2929    5.9442 O   0  0  0  0  0  0  0  0  0  0  0  0
   -3.9756    1.2935    5.5100 C   0  0  0  0  0  0  0  0  0  0  0  0
   -3.3222    2.5082    4.8631 C   0  0  0  0  0  0  0  0  0  0  0  0
  1  2  1  0
  2  3  1  0
  2  4  1  0
  4  5  1  0
  5  6  1  0
  6  7  2  0
  6  8  1  0
  8  9  1  0
  9 10  1  0
 10 11  1  0
  9 12  1  0
 12 13  1  0
 13 14  2  0
 14 15  1  0
 15 16  2  0
 16 17  1  0
 16 18  1  0
 18 19  2  0
 19 13  1  0
  4 20  1  0
 20 21  1  0
 21 22  1  0
 22 23  1  0
 23 24  1  0
 24  2  1  0
M  END
$$$$
s_58____12377132____12369798
     RDKit          3D

 26 27  0  0  0  0  0  0  0  0999 V2000
    0.5541   -3.9711    4.3961 F   0  0  0  0  0  0  0  0  0  0  0  0
    1.1633   -3.1071    3.5886 C   0  0  0  0  0  0  0  0  0  0  0  0
    1.3159   -3.4102    2.2395 C   0  0  0  0  0  0  0  0  0  0  0  0
    1.9548   -2.5022    1.4013 C   0  0  0  0  0  0  0  0  0  0  0  0
    2.4327   -1.3039    1.9210 C   0  0  0  0  0  0  0  0  0  0  0  0
    2.2770   -1.0059    3.2705 C   0  0  0  0  0  0  0  0  0  0  0  0
    1.6387   -1.9097    4.1132 C   0  0  0  0  0  0  0  0  0  0  0  0
    3.1300   -0.3164    1.0000 C   0  0  0  0  0  0  0  0  0  0  0  0
    2.3700    1.0000    1.0000 C   0  0  0  0  0  0  0  0  0  0  0  0
    2.9700    2.0392    1.0000 O   0  0  0  0  0  0  0  0  0  0  0  0
    1.0000    1.0000    1.0000 N   0  0  0  0  0  0  0  0  0  0  0  0
    0.2635    2.2757    1.0000 C   0  0  0  0  0  0  0  0  0  0  0  0
   -0.6167    2.3730   -0.2360 C   0  0  0  0  0  0  0  0  0  0  0  0
   -1.3983    3.6763   -0.1842 C   0  0  0  0  0  0  0  0  0  0  0  0
   -2.2005    3.7522    0.9882 O   0  0  0  0  0  0  0  0  0  0  0  0
   -1.4265    3.6801    2.1772 C   0  0  0  0  0  0  0  0  0  0  0  0
   -0.6361    2.3820    2.2211 C   0  0  0  0  0  0  0  0  0  0  0  0
   -2.2389    3.7578   -1.4486 C   0  0  0  0  0  0  0  0  0  0  0  0
   -2.9938    5.0769   -1.4709 C   0  0  0  0  0  0  0  0  0  0  0  0
   -2.0023    6.2287   -1.4465 C   0  0  0  0  0  0  0  0  0  0  0  0
   -3.8341    5.1584   -2.7349 C   0  0  0  0  0  0  0  0  0  0  0  0
    4.5496   -0.0818    1.4901 C   0  0  0  0  0  0  0  0  0  0  0  0
    5.4834   -1.0888    0.8387 C   0  0  0  0  0  0  0  0  0  0  0  0
    6.1572   -0.7623   -0.1118 O   0  0  0  0  0  0  0  0  0  0  0  0
    5.5552   -2.2543    1.2849 O   0  0  0  0  0  0  0  0  0  0  0  0
    3.1678   -0.8796   -0.4113 C   0  0  0  0  0  0  0  0  0  0  0  0
  1  2  1  0
  2  3  2  0
  3  4  1  0
  4  5  2  0
  5  6  1  0
  6  7  2  0
  7  2  1  0
  5  8  1  0
  8  9  1  0
  9 10  2  0
  9 11  1  0
 11 12  1  0
 12 13  1  0
 13 14  1  0
 14 15  1  0
 15 16  1  0
 16 17  1  0
 17 12  1  0
 14 18  1  0
 18 19  1  0
 19 20  1  0
 19 21  1  0
  8 22  1  0
 22 23  1  0
 23 24  1  0
 23 25  2  0
  8 26  1  0
M  CHG  1  24  -1
M  END
$$$$
s_22____10890574____17513450
     RDKit          3D

 28 30  0  0  0  0  0  0  0  0999 V2000
    1.5984    2.0403    3.0332 O   0  0  0  0  0  0  0  0  0  0  0  0
    1.8776    1.8776    1.8776 C   0  0  0  0  0  0  0  0  0  0  0  0
    3.0092    2.4947    1.3387 N   0  0  0  0  0  0  0  0  0  0  0  0
    3.0530    3.9659    1.3083 C   0  0  0  0  0  0  0  0  0  0  0  0
    3.8273    4.4885    0.1064 C   0  0  0  0  0  0  0  0  0  0  0  0
    5.1386    3.7452   -0.1065 C   0  0  0  0  0  0  0  0  0  0  0  0
    5.7373    4.2493   -1.2920 O   0  0  0  0  0  0  0  0  0  0  0  0
    7.1451    4.3148   -1.1202 C   0  0  0  0  0  0  0  0  0  0  0  0
    7.8359    3.4432   -2.1564 C   0  0  0  0  0  0  0  0  0  0  0  0
    9.3436    3.5112   -1.9736 C   0  0  0  0  0  0  0  0  0  0  0  0
    9.8203    4.9490   -2.1018 C   0  0  0  0  0  0  0  0  0  0  0  0
    9.1308    5.8209   -1.0648 C   0  0  0  0  0  0  0  0  0  0  0  0
    7.6231    5.7522   -1.2474 C   0  0  0  0  0  0  0  0  0  0  0  0
    4.8132    2.2783   -0.3531 C   0  0  0  0  0  0  0  0  0  0  0  0
    4.0933    1.6405    0.8270 C   0  0  0  0  0  0  0  0  0  0  0  0
    1.0000    1.0000    1.0000 C   0  0  0  0  0  0  0  0  0  0  0  0
   -0.2629    0.7171    1.6971 N   0  0  0  0  0  0  0  0  0  0  0  0
   -0.6150   -0.5766    1.9787 C   0  0  0  0  0  0  0  0  0  0  0  0
    0.1075   -1.4788    1.6563 O   0  0  0  0  0  0  0  0  0  0  0  0
   -1.9209   -0.8691    2.6995 C   0  0  0  0  0  0  0  0  0  0  0  0
    0.7075    1.7208   -0.3059 C   0  0  0  0  0  0  0  0  0  0  0  0
    0.1593    0.7299   -1.3198 C   0  0  0  0  0  0  0  0  0  0  0  0
    1.0382    0.0507   -2.1571 C   0  0  0  0  0  0  0  0  0  0  0  0
    0.5412   -0.8575   -3.0859 C   0  0  0  0  0  0  0  0  0  0  0  0
   -0.8306   -1.0755   -3.1651 C   0  0  0  0  0  0  0  0  0  0  0  0
   -1.3172   -1.9558   -4.0653 O   0  0  0  0  0  0  0  0  0  0  0  0
   -1.7139   -0.3986   -2.3303 C   0  0  0  0  0  0  0  0  0  0  0  0
   -1.2115    0.5081   -1.4031 C   0  0  0  0  0  0  0  0  0  0  0  0
  1  2  2  0
  2  3  1  0
  3  4  1  0
  4  5  1  0
  5  6  1  0
  6  7  1  0
  7  8  1  0
  8  9  1  0
  9 10  1  0
 10 11  1  0
 11 12  1  0
 12 13  1  0
 13  8  1  0
  6 14  1  0
 14 15  1  0
 15  3  1  0
  2 16  1  0
 16 17  1  0
 17 18  1  0
 18 19  2  0
 18 20  1  0
 16 21  1  0
 21 22  1  0
 22 23  2  0
 23 24  1  0
 24 25  2  0
 25 26  1  0
 25 27  1  0
 27 28  2  0
 28 22  1  0
M  END
$$$$
s_2708____6465958____16492312
     RDKit          3D

 25 27  0  0  0  0  0  0  0  0999 V2000
    0.4000   -0.0392    1.0000 O   0  0  0  0  0  0  0  0  0  0  0  0
    1.0000    1.0000    1.0000 C   0  0  0  0  0  0  0  0  0  0  0  0
    2.3700    1.0000    1.0000 N   0  0  0  0  0  0  0  0  0  0  0  0
    3.1050   -0.2731    1.0000 C   0  0  0  0  0  0  0  0  0  0  0  0
    4.2359   -0.2052   -0.0133 C   0  0  0  0  0  0  0  0  0  0  0  0
    3.7113    0.1457   -1.2853 O   0  0  0  0  0  0  0  0  0  0  0  0
    3.3593   -1.0335   -1.9939 C   0  0  0  0  0  0  0  0  0  0  0  0
    3.6795   -0.5264    2.3842 C   0  0  0  0  0  0  0  0  0  0  0  0
    4.5913   -1.7421    2.3398 C   0  0  0  0  0  0  0  0  0  0  0  0
    5.9713   -1.5701    2.3745 C   0  0  0  0  0  0  0  0  0  0  0  0
    6.8019   -2.6852    2.3327 C   0  0  0  0  0  0  0  0  0  0  0  0
    6.2513   -3.9603    2.2582 C   0  0  0  0  0  0  0  0  0  0  0  0
    4.8715   -4.1201    2.2246 C   0  0  0  0  0  0  0  0  0  0  0  0
    4.0302   -3.0130    2.2651 C   0  0  0  0  0  0  0  0  0  0  0  0
    0.3150    2.1865    1.0000 N   0  0  0  0  0  0  0  0  0  0  0  0
   -1.1550    2.1865    1.0000 C   0  0  0  0  0  0  0  0  0  0  0  0
   -1.6623    3.6212    1.0000 C   0  0  0  0  0  0  0  0  0  0  0  0
   -1.1798    4.3812   -0.2266 C   0  0  0  0  0  0  0  0  0  0  0  0
   -1.1121    5.7309    0.1776 O   0  0  0  0  0  0  0  0  0  0  0  0
   -1.3987    5.8347    1.5755 C   0  0  0  0  0  0  0  0  0  0  0  0
   -0.9239    4.4654    2.0083 C   0  0  0  0  0  0  0  0  0  0  0  0
   -2.8948    6.0596    1.7550 C   0  0  0  0  0  0  0  0  0  0  0  0
   -3.7454    5.0540    0.9933 C   0  0  0  0  0  0  0  0  0  0  0  0
   -3.1793    3.6479    1.1341 C   0  0  0  0  0  0  0  0  0  0  0  0
   -0.5972    6.9515    2.2223 C   0  0  0  0  0  0  0  0  0  0  0  0
  1  2  2  0
  2  3  1  0
  3  4  1  0
  4  5  1  0
  5  6  1  0
  6  7  1  0
  4  8  1  0
  8  9  1  0
  9 10  2  0
 10 11  1  0
 11 12  2  0
 12 13  1  0
 13 14  2  0
 14  9  1  0
  2 15  1  0
 15 16  1  0
 16 17  1  0
 17 18  1  0
 18 19  1  0
 19 20  1  0
 20 21  1  0
 21 17  1  0
 20 22  1  0
 22 23  1  0
 23 24  1  0
 24 17  1  0
 20 25  1  0
M  END
$$$$
s_2708____8366598____9820842
     RDKit          3D

 30 31  0  0  0  0  0  0  0  0999 V2000
    5.7140    1.2824    2.2637 Cl  0  0  0  0  0  0  0  0  0  0  0  0
    4.5174    2.3103    3.0888 C   0  0  0  0  0  0  0  0  0  0  0  0
    3.3584    2.7119    2.4333 C   0  0  0  0  0  0  0  0  0  0  0  0
    2.4303    3.5145    3.0894 C   0  0  0  0  0  0  0  0  0  0  0  0
    2.6618    3.9159    4.4013 C   0  0  0  0  0  0  0  0  0  0  0  0
    3.8246    3.5088    5.0471 C   0  0  0  0  0  0  0  0  0  0  0  0
    4.1223    4.0221    6.7255 Cl  0  0  0  0  0  0  0  0  0  0  0  0
    4.7585    2.7061    4.4004 C   0  0  0  0  0  0  0  0  0  0  0  0
    3.1050    2.2731    1.0000 C   0  0  0  0  0  0  0  0  0  0  0  0
    2.3700    1.0000    1.0000 N   0  0  0  0  0  0  0  0  0  0  0  0
    1.0000    1.0000    1.0000 C   0  0  0  0  0  0  0  0  0  0  0  0
    0.4000   -0.0392    1.0000 O   0  0  0  0  0  0  0  0  0  0  0  0
    0.3150    2.1865    1.0000 N   0  0  0  0  0  0  0  0  0  0  0  0
   -1.1594    2.1865    1.0000 C   0  0  0  0  0  0  0  0  0  0  0  0
   -1.6883    2.8993   -0.2347 C   0  0  0  0  0  0  0  0  0  0  0  0
   -3.2074    2.9242   -0.1739 C   0  0  0  0  0  0  0  0  0  0  0  0
   -3.6680    3.5818    1.0003 O   0  0  0  0  0  0  0  0  0  0  0  0
   -3.2028    2.9539    2.1873 C   0  0  0  0  0  0  0  0  0  0  0  0
   -1.6825    2.9149    2.2284 C   0  0  0  0  0  0  0  0  0  0  0  0
   -3.7107    3.6078   -1.4352 C   0  0  0  0  0  0  0  0  0  0  0  0
   -5.2306    3.5965   -1.4456 C   0  0  0  0  0  0  0  0  0  0  0  0
   -5.7269    2.1601   -1.4153 C   0  0  0  0  0  0  0  0  0  0  0  0
   -3.2144    5.0441   -1.4655 C   0  0  0  0  0  0  0  0  0  0  0  0
   -3.7176    5.7276   -2.7266 C   0  0  0  0  0  0  0  0  0  0  0  0
    3.1050   -0.2731    1.0000 C   0  0  0  0  0  0  0  0  0  0  0  0
    3.3583   -0.7118   -0.4331 C   0  0  0  0  0  0  0  0  0  0  0  0
    4.0933   -1.9849   -0.4331 N   0  0  0  0  0  0  0  0  0  0  0  0
    3.4239   -3.1623   -0.2270 C   0  0  0  0  0  0  0  0  0  0  0  0
    2.2376   -3.1544   -0.0466 O   0  0  0  0  0  0  0  0  0  0  0  0
    4.1839   -4.4787   -0.2270 C   0  0  0  0  0  0  0  0  0  0  0  0
  1  2  1  0
  2  3  2  0
  3  4  1  0
  4  5  2  0
  5  6  1  0
  6  7  1  0
  6  8  2  0
  8  2  1  0
  3  9  1  0
  9 10  1  0
 10 11  1  0
 11 12  2  0
 11 13  1  0
 13 14  1  0
 14 15  1  0
 15 16  1  0
 16 17  1  0
 17 18  1  0
 18 19  1  0
 19 14  1  0
 16 20  1  0
 20 21  1  0
 21 22  1  0
 20 23  1  0
 23 24  1  0
 10 25  1  0
 25 26  1  0
 26 27  1  0
 27 28  1  0
 28 29  2  0
 28 30  1  0
M  END
$$$$
s_272164____17323428____9382468
     RDKit          3D

 26 27  0  0  0  0  0  0  0  0999 V2000
    0.4000   -0.0392    1.0000 O   0  0  0  0  0  0  0  0  0  0  0  0
    1.0000    1.0000    1.0000 C   0  0  0  0  0  0  0  0  0  0  0  0
    2.3700    1.0000    1.0000 N   0  0  0  0  0  0  0  0  0  0  0  0
    3.0701   -0.2126    1.0000 C   0  0  0  0  0  0  0  0  0  0  0  0
    3.4144   -0.8090    2.2088 C   0  0  0  0  0  0  0  0  0  0  0  0
    4.1097   -2.0137    2.2048 C   0  0  0  0  0  0  0  0  0  0  0  0
    4.4556   -2.6129    0.9984 C   0  0  0  0  0  0  0  0  0  0  0  0
    4.1057   -2.0079   -0.2042 C   0  0  0  0  0  0  0  0  0  0  0  0
    3.4105   -0.8032   -0.2125 C   0  0  0  0  0  0  0  0  0  0  0  0
    3.1050    2.2731    1.0000 C   0  0  0  0  0  0  0  0  0  0  0  0
    3.3583    2.7118    2.4331 C   0  0  0  0  0  0  0  0  0  0  0  0
    2.9684    2.0365    3.3452 O   0  0  0  0  0  0  0  0  0  0  0  0
    4.0318    3.8783    2.6834 N   0  0  0  0  0  0  0  0  0  0  0  0
    4.2768    4.3027    4.0693 C   0  0  0  0  0  0  0  0  0  0  0  0
    4.5094    4.7056    1.5661 C   0  0  0  0  0  0  0  0  0  0  0  0
    0.3150    2.1865    1.0000 N   0  0  0  0  0  0  0  0  0  0  0  0
   -1.1594    2.1865    1.0000 C   0  0  0  0  0  0  0  0  0  0  0  0
   -1.6883    2.8993   -0.2347 C   0  0  0  0  0  0  0  0  0  0  0  0
   -3.2074    2.9242   -0.1739 C   0  0  0  0  0  0  0  0  0  0  0  0
   -3.6680    3.5818    1.0003 O   0  0  0  0  0  0  0  0  0  0  0  0
   -3.2028    2.9539    2.1873 C   0  0  0  0  0  0  0  0  0  0  0  0
   -1.6825    2.9149    2.2284 C   0  0  0  0  0  0  0  0  0  0  0  0
   -3.7107    3.6078   -1.4352 C   0  0  0  0  0  0  0  0  0  0  0  0
   -3.1902    2.8660   -2.6556 C   0  0  0  0  0  0  0  0  0  0  0  0
   -3.6864    1.4296   -2.6253 C   0  0  0  0  0  0  0  0  0  0  0  0
   -3.6934    3.5494   -3.9167 C   0  0  0  0  0  0  0  0  0  0  0  0
  1  2  2  0
  2  3  1  0
  3  4  1  0
  4  5  2  0
  5  6  1  0
  6  7  2  0
  7  8  1  0
  8  9  2  0
  9  4  1  0
  3 10  1  0
 10 11  1  0
 11 12  2  0
 11 13  1  0
 13 14  1  0
 13 15  1  0
  2 16  1  0
 16 17  1  0
 17 18  1  0
 18 19  1  0
 19 20  1  0
 20 21  1  0
 21 22  1  0
 22 17  1  0
 19 23  1  0
 23 24  1  0
 24 25  1  0
 24 26  1  0
M  END
$$$$
s_22____10430250____17513450
     RDKit          3D

 26 28  0  0  0  0  0  0  0  0999 V2000
    0.4000   -0.0392    1.0000 O   0  0  0  0  0  0  0  0  0  0  0  0
    1.0000    1.0000    1.0000 C   0  0  0  0  0  0  0  0  0  0  0  0
    2.3700    1.0000    1.0000 N   0  0  0  0  0  0  0  0  0  0  0  0
    3.1050   -0.2731    1.0000 C   0  0  0  0  0  0  0  0  0  0  0  0
    3.1428   -0.8363   -0.4113 C   0  0  0  0  0  0  0  0  0  0  0  0
    3.9031   -2.1530   -0.4113 C   0  0  0  0  0  0  0  0  0  0  0  0
    5.2194   -1.8824    0.0529 O   0  0  0  0  0  0  0  0  0  0  0  0
    3.8640   -2.8215   -1.7754 C   0  0  0  0  0  0  0  0  0  0  0  0
    2.4922   -3.4303   -1.8391 C   0  0  0  0  0  0  0  0  0  0  0  0
    2.6346   -4.1621   -0.5243 C   0  0  0  0  0  0  0  0  0  0  0  0
    3.1588   -3.1364    0.4714 C   0  0  0  0  0  0  0  0  0  0  0  0
    3.9039   -4.9511   -0.7878 C   0  0  0  0  0  0  0  0  0  0  0  0
    4.7006   -4.0804   -1.7356 C   0  0  0  0  0  0  0  0  0  0  0  0
    0.2400    2.3164    1.0000 C   0  0  0  0  0  0  0  0  0  0  0  0
   -1.2052    2.0477    1.0000 N   0  0  0  0  0  0  0  0  0  0  0  0
   -1.9871    2.5058    2.0275 C   0  0  0  0  0  0  0  0  0  0  0  0
   -1.4922    3.1263    2.9275 O   0  0  0  0  0  0  0  0  0  0  0  0
   -3.4815    2.2281    2.0275 C   0  0  0  0  0  0  0  0  0  0  0  0
    0.6072    3.1134   -0.2411 C   0  0  0  0  0  0  0  0  0  0  0  0
   -0.1528    4.4298   -0.2411 C   0  0  0  0  0  0  0  0  0  0  0  0
    0.4132    5.5469    0.3644 C   0  0  0  0  0  0  0  0  0  0  0  0
   -0.2782    6.7537    0.3662 C   0  0  0  0  0  0  0  0  0  0  0  0
   -1.5287    6.8280   -0.2391 C   0  0  0  0  0  0  0  0  0  0  0  0
   -2.2034    7.9972   -0.2393 O   0  0  0  0  0  0  0  0  0  0  0  0
   -2.0995    5.7138   -0.8457 C   0  0  0  0  0  0  0  0  0  0  0  0
   -1.4035    4.5097   -0.8449 C   0  0  0  0  0  0  0  0  0  0  0  0
  1  2  2  0
  2  3  1  0
  3  4  1  0
  4  5  1  0
  5  6  1  0
  6  7  1  0
  6  8  1  0
  8  9  1  0
  9 10  1  0
 10 11  1  0
 11  6  1  0
 10 12  1  0
 12 13  1  0
 13  8  1  0
  2 14  1  0
 14 15  1  0
 15 16  1  0
 16 17  2  0
 16 18  1  0
 14 19  1  0
 19 20  1  0
 20 21  2  0
 21 22  1  0
 22 23  2  0
 23 24  1  0
 23 25  1  0
 25 26  2  0
 26 20  1  0
M  END
$$$$
s_527a____6951206____17513452
     RDKit          3D

 26 26  0  0  0  0  0  0  0  0999 V2000
    0.9150    1.0000    3.2257 O   0  0  0  0  0  0  0  0  0  0  0  0
    0.3150    1.0000    2.1865 C   0  0  0  0  0  0  0  0  0  0  0  0
    1.0000    1.0000    1.0000 N   0  0  0  0  0  0  0  0  0  0  0  0
    2.4700    1.0000    1.0000 C   0  0  0  0  0  0  0  0  0  0  0  0
    2.9767   -0.4113    1.2488 C   0  0  0  0  0  0  0  0  0  0  0  0
    4.3967   -0.4113    1.2488 O   0  0  0  0  0  0  0  0  0  0  0  0
    4.8700    0.4493    2.2744 C   0  0  0  0  0  0  0  0  0  0  0  0
    6.3900    0.4493    2.2744 C   0  0  0  0  0  0  0  0  0  0  0  0
    2.4700   -1.3325    0.1511 C   0  0  0  0  0  0  0  0  0  0  0  0
    2.9767   -2.7438    0.3999 C   0  0  0  0  0  0  0  0  0  0  0  0
    2.4867   -3.6346   -0.6618 N   0  0  0  0  0  0  0  0  0  0  0  0
    1.0167   -3.6346   -0.6618 C   0  0  0  0  0  0  0  0  0  0  0  0
    2.9767   -3.1606   -1.9641 C   0  0  0  0  0  0  0  0  0  0  0  0
   -1.2050    1.0000    2.1865 C   0  0  0  0  0  0  0  0  0  0  0  0
   -1.6950    1.0000    3.5724 N   0  0  0  0  0  0  0  0  0  0  0  0
   -2.4826    2.0275    4.0205 C   0  0  0  0  0  0  0  0  0  0  0  0
   -2.7725    2.9275    3.2816 O   0  0  0  0  0  0  0  0  0  0  0  0
   -2.9893    2.0275    5.4535 C   0  0  0  0  0  0  0  0  0  0  0  0
   -1.7117   -0.2411    1.4699 C   0  0  0  0  0  0  0  0  0  0  0  0
   -3.2317   -0.2411    1.4699 C   0  0  0  0  0  0  0  0  0  0  0  0
   -3.9161    0.3644    0.4212 C   0  0  0  0  0  0  0  0  0  0  0  0
   -5.3069    0.3662    0.4166 C   0  0  0  0  0  0  0  0  0  0  0  0
   -5.9966   -0.2391    1.4624 C   0  0  0  0  0  0  0  0  0  0  0  0
   -7.3464   -0.2393    1.4621 O   0  0  0  0  0  0  0  0  0  0  0  0
   -5.3170   -0.8457    2.5138 C   0  0  0  0  0  0  0  0  0  0  0  0
   -3.9262   -0.8449    2.5131 C   0  0  0  0  0  0  0  0  0  0  0  0
  1  2  2  0
  2  3  1  0
  3  4  1  0
  4  5  1  0
  5  6  1  0
  6  7  1  0
  7  8  1  0
  5  9  1  0
  9 10  1  0
 10 11  1  0
 11 12  1  0
 11 13  1  0
  2 14  1  0
 14 15  1  0
 15 16  1  0
 16 17  2  0
 16 18  1  0
 14 19  1  0
 19 20  1  0
 20 21  2  0
 21 22  1  0
 22 23  2  0
 23 24  1  0
 23 25  1  0
 25 26  2  0
 26 20  1  0
M  CHG  1  11   1
M  END
$$$$
s_2708____13426432____14938918
     RDKit          3D

 23 25  0  0  0  0  0  0  0  0999 V2000
    3.2674   -5.6809   -0.0041 F   0  0  0  0  0  0  0  0  0  0  0  0
    3.9167   -4.5375   -0.2035 C   0  0  0  0  0  0  0  0  0  0  0  0
    5.2919   -4.5590   -0.4121 C   0  0  0  0  0  0  0  0  0  0  0  0
    5.9601   -3.3568   -0.6197 C   0  0  0  0  0  0  0  0  0  0  0  0
    7.2945   -3.3689   -0.8231 O   0  0  0  0  0  0  0  0  0  0  0  0
    5.2770   -2.1453   -0.6219 C   0  0  0  0  0  0  0  0  0  0  0  0
    3.9026   -2.1523   -0.4113 C   0  0  0  0  0  0  0  0  0  0  0  0
    3.2101   -3.3397   -0.2009 C   0  0  0  0  0  0  0  0  0  0  0  0
    3.1428   -0.8363   -0.4113 C   0  0  0  0  0  0  0  0  0  0  0  0
    3.1050   -0.2731    1.0000 C   0  0  0  0  0  0  0  0  0  0  0  0
    2.3700    1.0000    1.0000 N   0  0  0  0  0  0  0  0  0  0  0  0
    1.0000    1.0000    1.0000 C   0  0  0  0  0  0  0  0  0  0  0  0
    0.4000   -0.0392    1.0000 O   0  0  0  0  0  0  0  0  0  0  0  0
    0.3150    2.1865    1.0000 N   0  0  0  0  0  0  0  0  0  0  0  0
   -1.1550    2.1865    1.0000 C   0  0  0  0  0  0  0  0  0  0  0  0
   -1.6616    1.9377    2.4110 C   0  0  0  0  0  0  0  0  0  0  0  0
   -1.2298    0.6959    2.9409 O   0  0  0  0  0  0  0  0  0  0  0  0
   -2.1772   -0.3320    2.6914 C   0  0  0  0  0  0  0  0  0  0  0  0
   -3.3482    0.3302    2.0068 C   0  0  0  0  0  0  0  0  0  0  0  0
   -3.1668    1.7732    2.4339 C   0  0  0  0  0  0  0  0  0  0  0  0
   -1.1971    3.1003    3.2741 C   0  0  0  0  0  0  0  0  0  0  0  0
   -1.7404    2.9852    4.6684 C   0  0  0  0  0  0  0  0  0  0  0  0
   -2.3330    3.9796    3.7115 C   0  0  0  0  0  0  0  0  0  0  0  0
  1  2  1  0
  2  3  2  0
  3  4  1  0
  4  5  1  0
  4  6  2  0
  6  7  1  0
  7  8  2  0
  8  2  1  0
  7  9  1  0
  9 10  1  0
 10 11  1  0
 11 12  1  0
 12 13  2  0
 12 14  1  0
 14 15  1  0
 15 16  1  0
 16 17  1  0
 17 18  1  0
 18 19  1  0
 19 20  1  0
 20 16  1  0
 16 21  1  0
 21 22  1  0
 22 23  1  0
 23 21  1  0
M  END
$$$$
s_271949____10832348____12139220
     RDKit          3D

 25 26  0  0  0  0  0  0  0  0999 V2000
    2.4494   -0.5841    4.4848 O   0  0  0  0  0  0  0  0  0  0  0  0
    3.3542    0.1822    4.2999 C   0  0  0  0  0  0  0  0  0  0  0  0
    3.2114    1.2255    3.3733 N   0  0  0  0  0  0  0  0  0  0  0  0
    2.0224    1.4937    2.5693 C   0  0  0  0  0  0  0  0  0  0  0  0
    2.0036    3.0049    2.5311 C   0  0  0  0  0  0  0  0  0  0  0  0
    1.3112    3.4864    1.3896 O   0  0  0  0  0  0  0  0  0  0  0  0
    1.3189    4.9064    1.3954 C   0  0  0  0  0  0  0  0  0  0  0  0
    0.5773    5.4220    0.1729 C   0  0  0  0  0  0  0  0  0  0  0  0
    1.2628    4.9167   -1.0861 C   0  0  0  0  0  0  0  0  0  0  0  0
    0.5212    5.4324   -2.3086 C   0  0  0  0  0  0  0  0  0  0  0  0
    2.6983    5.4157   -1.1165 C   0  0  0  0  0  0  0  0  0  0  0  0
    3.4622    3.4171    2.4912 C   0  0  0  0  0  0  0  0  0  0  0  0
    4.2325    2.2263    3.0455 C   0  0  0  0  0  0  0  0  0  0  0  0
    4.6550    0.0222    5.0698 C   0  0  0  0  0  0  0  0  0  0  0  0
    5.6487   -0.3367    4.5008 O   0  0  0  0  0  0  0  0  0  0  0  0
    4.6929    0.2877    6.4132 N   0  0  0  0  0  0  0  0  0  0  0  0
    5.9510    0.1330    7.1578 C   0  0  0  0  0  0  0  0  0  0  0  0
    6.5975    1.4947    7.3484 C   0  0  0  0  0  0  0  0  0  0  0  0
    6.2818    2.2390    8.4804 C   0  0  0  0  0  0  0  0  0  0  0  0
    6.8752    3.4845    8.6534 C   0  0  0  0  0  0  0  0  0  0  0  0
    6.5821    4.2237    9.7439 O   0  0  0  0  0  0  0  0  0  0  0  0
    7.7696    3.9786    7.7094 C   0  0  0  0  0  0  0  0  0  0  0  0
    8.0765    3.2252    6.5805 C   0  0  0  0  0  0  0  0  0  0  0  0
    7.4903    1.9772    6.3967 C   0  0  0  0  0  0  0  0  0  0  0  0
    3.4756    0.7273    7.1102 C   0  0  0  0  0  0  0  0  0  0  0  0
  1  2  2  0
  2  3  1  0
  3  4  1  0
  4  5  1  0
  5  6  1  0
  6  7  1  0
  7  8  1  0
  8  9  1  0
  9 10  1  0
  9 11  1  0
  5 12  1  0
 12 13  1  0
 13  3  1  0
  2 14  1  0
 14 15  2  0
 14 16  1  0
 16 17  1  0
 17 18  1  0
 18 19  2  0
 19 20  1  0
 20 21  1  0
 20 22  2  0
 22 23  1  0
 23 24  2  0
 24 18  1  0
 16 25  1  0
M  END
$$$$
s_22____12222500____17318518
     RDKit          3D

 31 32  0  0  0  0  0  0  0  0999 V2000
    5.9532   -0.9938   -3.5680 Br  0  0  0  0  0  0  0  0  0  0  0  0
    4.3464   -1.2238   -2.4696 C   0  0  0  0  0  0  0  0  0  0  0  0
    4.3157   -0.7074   -1.1789 C   0  0  0  0  0  0  0  0  0  0  0  0
    3.1678   -0.8797   -0.4115 C   0  0  0  0  0  0  0  0  0  0  0  0
    2.0630   -1.5561   -0.9175 C   0  0  0  0  0  0  0  0  0  0  0  0
    2.1153   -2.0652   -2.2109 C   0  0  0  0  0  0  0  0  0  0  0  0
    3.2529   -1.9040   -2.9949 C   0  0  0  0  0  0  0  0  0  0  0  0
    3.1300   -0.3164    1.0000 C   0  0  0  0  0  0  0  0  0  0  0  0
    2.4556   -1.2716    1.8909 N   0  0  0  0  0  0  0  0  0  0  0  0
    3.1241   -1.7951    2.9660 C   0  0  0  0  0  0  0  0  0  0  0  0
    2.5735   -2.5748    3.6932 O   0  0  0  0  0  0  0  0  0  0  0  0
    4.3644   -1.4444    3.2001 O   0  0  0  0  0  0  0  0  0  0  0  0
    5.0573   -1.9870    4.3145 C   0  0  0  0  0  0  0  0  0  0  0  0
    4.3242   -1.6204    5.5945 C   0  0  0  0  0  0  0  0  0  0  0  0
    5.1220   -3.5000    4.1832 C   0  0  0  0  0  0  0  0  0  0  0  0
    6.4675   -1.4215    4.3586 C   0  0  0  0  0  0  0  0  0  0  0  0
    2.3700    1.0000    1.0000 C   0  0  0  0  0  0  0  0  0  0  0  0
    2.9700    2.0392    1.0000 O   0  0  0  0  0  0  0  0  0  0  0  0
    1.0000    1.0000    1.0000 N   0  0  0  0  0  0  0  0  0  0  0  0
    0.2652    2.2727    1.0000 C   0  0  0  0  0  0  0  0  0  0  0  0
   -0.6128    2.3645    2.2376 C   0  0  0  0  0  0  0  0  0  0  0  0
   -1.3773    3.6784    2.2393 C   0  0  0  0  0  0  0  0  0  0  0  0
   -2.2362    3.7869    0.9894 C   0  0  0  0  0  0  0  0  0  0  0  0
   -2.9376    5.0212    0.9893 O   0  0  0  0  0  0  0  0  0  0  0  0
   -2.0077    6.0941    1.0123 C   0  0  0  0  0  0  0  0  0  0  0  0
   -2.7587    7.4156    1.0121 C   0  0  0  0  0  0  0  0  0  0  0  0
   -1.7633    8.5641    1.0368 C   0  0  0  0  0  0  0  0  0  0  0  0
   -0.9088    8.4671    2.2901 C   0  0  0  0  0  0  0  0  0  0  0  0
   -0.8714    8.4880   -0.1917 C   0  0  0  0  0  0  0  0  0  0  0  0
   -1.3518    3.6976   -0.2437 C   0  0  0  0  0  0  0  0  0  0  0  0
   -0.5876    2.3834   -0.2535 C   0  0  0  0  0  0  0  0  0  0  0  0
  1  2  1  0
  2  3  2  0
  3  4  1  0
  4  5  2  0
  5  6  1  0
  6  7  2  0
  7  2  1  0
  4  8  1  0
  8  9  1  0
  9 10  1  0
 10 11  2  0
 10 12  1  0
 12 13  1  0
 13 14  1  0
 13 15  1  0
 13 16  1  0
  8 17  1  0
 17 18  2  0
 17 19  1  0
 19 20  1  0
 20 21  1  0
 21 22  1  0
 22 23  1  0
 23 24  1  0
 24 25  1  0
 25 26  1  0
 26 27  1  0
 27 28  1  0
 27 29  1  0
 23 30  1  0
 30 31  1  0
 31 20  1  0
M  END
$$$$
s_2708____8333320____11566486
     RDKit          3D

 30 31  0  0  0  0  0  0  0  0999 V2000
    1.9588   -5.7469    2.1269 F   0  0  0  0  0  0  0  0  0  0  0  0
    2.6743   -4.8985    1.3945 C   0  0  0  0  0  0  0  0  0  0  0  0
    3.8889   -5.3128    0.8562 C   0  0  0  0  0  0  0  0  0  0  0  0
    4.3338   -6.5682    1.0799 O   0  0  0  0  0  0  0  0  0  0  0  0
    5.5733   -6.9906    0.5305 C   0  0  0  0  0  0  0  0  0  0  0  0
    4.6545   -4.4436    0.0860 C   0  0  0  0  0  0  0  0  0  0  0  0
    4.1914   -3.1517   -0.1410 C   0  0  0  0  0  0  0  0  0  0  0  0
    2.9765   -2.7434    0.3998 C   0  0  0  0  0  0  0  0  0  0  0  0
    2.2070   -3.6081    1.1702 C   0  0  0  0  0  0  0  0  0  0  0  0
    2.4700   -1.3325    0.1511 C   0  0  0  0  0  0  0  0  0  0  0  0
    2.9767   -0.4113    1.2488 C   0  0  0  0  0  0  0  0  0  0  0  0
    4.4967   -0.4113    1.2488 C   0  0  0  0  0  0  0  0  0  0  0  0
    5.0967   -0.7667    2.2254 O   0  0  0  0  0  0  0  0  0  0  0  0
    5.1817   -0.0055    0.1339 N   0  0  0  0  0  0  0  0  0  0  0  0
    6.6517   -0.0055    0.1339 C   0  0  0  0  0  0  0  0  0  0  0  0
    2.4700    1.0000    1.0000 C   0  0  0  0  0  0  0  0  0  0  0  0
    1.0000    1.0000    1.0000 N   0  0  0  0  0  0  0  0  0  0  0  0
    0.3150    1.0000    2.1865 C   0  0  0  0  0  0  0  0  0  0  0  0
    0.9150    1.0000    3.2257 O   0  0  0  0  0  0  0  0  0  0  0  0
   -1.0550    1.0000    2.1865 N   0  0  0  0  0  0  0  0  0  0  0  0
   -1.7922    1.0000    3.4633 C   0  0  0  0  0  0  0  0  0  0  0  0
   -2.6740   -0.2347    3.5649 C   0  0  0  0  0  0  0  0  0  0  0  0
   -3.4551   -0.1739    4.8681 C   0  0  0  0  0  0  0  0  0  0  0  0
   -4.2549    1.0003    4.9381 O   0  0  0  0  0  0  0  0  0  0  0  0
   -3.4785    2.1873    4.8492 C   0  0  0  0  0  0  0  0  0  0  0  0
   -2.6846    2.2284    3.5521 C   0  0  0  0  0  0  0  0  0  0  0  0
   -4.2987   -1.4352    4.9622 C   0  0  0  0  0  0  0  0  0  0  0  0
   -5.0489   -1.4456    6.2841 C   0  0  0  0  0  0  0  0  0  0  0  0
   -5.8924   -2.7066    6.3781 C   0  0  0  0  0  0  0  0  0  0  0  0
   -4.0531   -1.4153    7.4320 C   0  0  0  0  0  0  0  0  0  0  0  0
  1  2  1  0
  2  3  2  0
  3  4  1  0
  4  5  1  0
  3  6  1  0
  6  7  2  0
  7  8  1  0
  8  9  2  0
  9  2  1  0
  8 10  1  0
 10 11  1  0
 11 12  1  0
 12 13  2  0
 12 14  1  0
 14 15  1  0
 11 16  1  0
 16 17  1  0
 17 18  1  0
 18 19  2  0
 18 20  1  0
 20 21  1  0
 21 22  1  0
 22 23  1  0
 23 24  1  0
 24 25  1  0
 25 26  1  0
 26 21  1  0
 23 27  1  0
 27 28  1  0
 28 29  1  0
 28 30  1  0
M  END
$$$$
s_22____678068____17513450
     RDKit          3D

 30 31  0  0  0  0  0  0  0  0999 V2000
    2.5919    6.2420    6.4263 S   0  0  0  0  0  0  0  0  0  0  0  0
    2.5391    5.0679    5.1429 C   0  0  0  0  0  0  0  0  0  0  0  0
    3.5588    4.5727    4.4888 N   0  0  0  0  0  0  0  0  0  0  0  0
    3.1873    3.7074    3.5760 N   0  0  0  0  0  0  0  0  0  0  0  0
    1.8773    3.6325    3.6325 C   0  0  0  0  0  0  0  0  0  0  0  0
    1.4415    4.4785    4.6064 N   0  0  0  0  0  0  0  0  0  0  0  0
    0.0457    4.7131    4.9976 C   0  0  0  0  0  0  0  0  0  0  0  0
   -0.6390    5.5680    3.9437 C   0  0  0  0  0  0  0  0  0  0  0  0
   -2.1189    5.2244    3.8958 C   0  0  0  0  0  0  0  0  0  0  0  0
   -0.4711    7.0372    4.2956 C   0  0  0  0  0  0  0  0  0  0  0  0
    1.0000    2.7551    2.7551 C   0  0  0  0  0  0  0  0  0  0  0  0
    1.8776    1.8776    1.8776 C   0  0  0  0  0  0  0  0  0  0  0  0
    1.0000    1.0000    1.0000 C   0  0  0  0  0  0  0  0  0  0  0  0
    1.8487    0.1513    0.1513 N   0  0  0  0  0  0  0  0  0  0  0  0
    1.2755   -0.7286   -0.7286 C   0  0  0  0  0  0  0  0  0  0  0  0
    0.0805   -0.8064   -0.8064 O   0  0  0  0  0  0  0  0  0  0  0  0
    2.1530   -1.6061   -1.6061 C   0  0  0  0  0  0  0  0  0  0  0  0
    3.3028   -2.0855   -0.8257 N   0  0  0  0  0  0  0  0  0  0  0  0
    3.4985   -3.4300   -0.6497 C   0  0  0  0  0  0  0  0  0  0  0  0
    2.7314   -4.2163   -1.1326 O   0  0  0  0  0  0  0  0  0  0  0  0
    4.6874   -3.9257    0.1573 C   0  0  0  0  0  0  0  0  0  0  0  0
    2.6487   -0.7991   -2.7950 C   0  0  0  0  0  0  0  0  0  0  0  0
    3.5263   -1.6767   -3.6726 C   0  0  0  0  0  0  0  0  0  0  0  0
    2.9477   -2.4100   -4.7033 C   0  0  0  0  0  0  0  0  0  0  0  0
    3.7469   -3.2138   -5.5093 C   0  0  0  0  0  0  0  0  0  0  0  0
    5.1169   -3.2736   -5.2741 C   0  0  0  0  0  0  0  0  0  0  0  0
    5.8961   -4.0526   -6.0538 O   0  0  0  0  0  0  0  0  0  0  0  0
    5.7005   -2.5425   -4.2445 C   0  0  0  0  0  0  0  0  0  0  0  0
    4.8967   -1.7401   -3.4418 C   0  0  0  0  0  0  0  0  0  0  0  0
    3.0380    5.1452    7.7953 C   0  0  0  0  0  0  0  0  0  0  0  0
  1  2  1  0
  2  3  2  0
  3  4  1  0
  4  5  2  0
  5  6  1  0
  6  2  1  0
  6  7  1  0
  7  8  1  0
  8  9  1  0
  8 10  1  0
  5 11  1  0
 11 12  1  0
 12 13  1  0
 13 14  1  0
 14 15  1  0
 15 16  2  0
 15 17  1  0
 17 18  1  0
 18 19  1  0
 19 20  2  0
 19 21  1  0
 17 22  1  0
 22 23  1  0
 23 24  2  0
 24 25  1  0
 25 26  2  0
 26 27  1  0
 26 28  1  0
 28 29  2  0
 29 23  1  0
  1 30  1  0
M  END
$$$$
s_22____14593318____16887748
     RDKit          3D

 30 31  0  0  0  0  0  0  0  0999 V2000
    5.3209    3.2674    0.4626 F   0  0  0  0  0  0  0  0  0  0  0  0
    4.7891    4.1458    1.3079 C   0  0  0  0  0  0  0  0  0  0  0  0
    4.2163    5.1307    0.6218 F   0  0  0  0  0  0  0  0  0  0  0  0
    5.8801    4.7165    2.1980 C   0  0  0  0  0  0  0  0  0  0  0  0
    6.0382    3.9370    3.3751 O   0  0  0  0  0  0  0  0  0  0  0  0
    6.7243    4.6980    4.3582 C   0  0  0  0  0  0  0  0  0  0  0  0
    7.1910    5.0608    1.5132 C   0  0  0  0  0  0  0  0  0  0  0  0
    6.6064    6.4223    1.2275 C   0  0  0  0  0  0  0  0  0  0  0  0
    5.7859    6.1972    2.4770 C   0  0  0  0  0  0  0  0  0  0  0  0
    3.7445    3.4531    2.1677 C   0  0  0  0  0  0  0  0  0  0  0  0
    2.8957    2.6044    1.3190 N   0  0  0  0  0  0  0  0  0  0  0  0
    1.8776    1.8776    1.8776 C   0  0  0  0  0  0  0  0  0  0  0  0
    1.6786    1.9338    3.0596 O   0  0  0  0  0  0  0  0  0  0  0  0
    1.0000    1.0000    1.0000 C   0  0  0  0  0  0  0  0  0  0  0  0
    0.7171    1.6971   -0.2629 N   0  0  0  0  0  0  0  0  0  0  0  0
    1.1013    1.1397   -1.4540 C   0  0  0  0  0  0  0  0  0  0  0  0
    1.6688    0.0825   -1.4663 O   0  0  0  0  0  0  0  0  0  0  0  0
    0.8088    1.8605   -2.7598 C   0  0  0  0  0  0  0  0  0  0  0  0
    1.3000    1.0895   -3.8464 O   0  0  0  0  0  0  0  0  0  0  0  0
    1.0267    1.7629   -5.0663 C   0  0  0  0  0  0  0  0  0  0  0  0
    1.5525    0.9376   -6.2294 C   0  0  0  0  0  0  0  0  0  0  0  0
   -0.4742    1.9509   -5.2161 C   0  0  0  0  0  0  0  0  0  0  0  0
   -0.3059    0.7075    1.7208 C   0  0  0  0  0  0  0  0  0  0  0  0
   -1.1835   -0.1701    0.8432 C   0  0  0  0  0  0  0  0  0  0  0  0
   -1.0842   -1.5540    0.9425 C   0  0  0  0  0  0  0  0  0  0  0  0
   -1.8857   -2.3610    0.1420 C   0  0  0  0  0  0  0  0  0  0  0  0
   -2.7781   -1.7726   -0.7486 C   0  0  0  0  0  0  0  0  0  0  0  0
   -3.5577   -2.5520   -1.5276 O   0  0  0  0  0  0  0  0  0  0  0  0
   -2.8811   -0.3891   -0.8520 C   0  0  0  0  0  0  0  0  0  0  0  0
   -2.0774    0.4131   -0.0489 C   0  0  0  0  0  0  0  0  0  0  0  0
  1  2  1  0
  2  3  1  0
  2  4  1  0
  4  5  1  0
  5  6  1  0
  4  7  1  0
  7  8  1  0
  8  9  1  0
  9  4  1  0
  2 10  1  0
 10 11  1  0
 11 12  1  0
 12 13  2  0
 12 14  1  0
 14 15  1  0
 15 16  1  0
 16 17  2  0
 16 18  1  0
 18 19  1  0
 19 20  1  0
 20 21  1  0
 20 22  1  0
 14 23  1  0
 23 24  1  0
 24 25  2  0
 25 26  1  0
 26 27  2  0
 27 28  1  0
 27 29  1  0
 29 30  2  0
 30 24  1  0
M  END
$$$$
s_22____11949848____17057108
     RDKit          3D

 28 29  0  0  0  0  0  0  0  0999 V2000
    0.4000    1.0000   -0.0392 O   0  0  0  0  0  0  0  0  0  0  0  0
    1.0000    1.0000    1.0000 C   0  0  0  0  0  0  0  0  0  0  0  0
    0.3150    1.0000    2.1865 N   0  0  0  0  0  0  0  0  0  0  0  0
   -1.1550    1.0000    2.1865 C   0  0  0  0  0  0  0  0  0  0  0  0
   -1.6617   -0.2411    2.9030 C   0  0  0  0  0  0  0  0  0  0  0  0
   -1.1883   -1.4005    2.2336 O   0  0  0  0  0  0  0  0  0  0  0  0
   -1.6617   -2.5599    2.9030 C   0  0  0  0  0  0  0  0  0  0  0  0
   -1.1548   -3.8015    2.1862 C   0  0  0  0  0  0  0  0  0  0  0  0
    0.3455   -3.8358    2.1664 C   0  0  0  0  0  0  0  0  0  0  0  0
   -0.4134   -3.4718    0.9226 C   0  0  0  0  0  0  0  0  0  0  0  0
   -1.6617    2.2411    2.9030 C   0  0  0  0  0  0  0  0  0  0  0  0
   -3.1817    2.2411    2.9030 C   0  0  0  0  0  0  0  0  0  0  0  0
    2.5200    1.0000    1.0000 C   0  0  0  0  0  0  0  0  0  0  0  0
    3.0100    1.0000   -0.3859 N   0  0  0  0  0  0  0  0  0  0  0  0
    3.7976   -0.0275   -0.8340 C   0  0  0  0  0  0  0  0  0  0  0  0
    4.0138   -0.9711   -0.1248 O   0  0  0  0  0  0  0  0  0  0  0  0
    4.3977    0.0277   -2.2295 C   0  0  0  0  0  0  0  0  0  0  0  0
    4.8450   -1.3646   -2.6441 C   0  0  0  0  0  0  0  0  0  0  0  0
    3.6531   -2.1413   -3.1792 C   0  0  0  0  0  0  0  0  0  0  0  0
    5.9057   -1.2544   -3.7273 C   0  0  0  0  0  0  0  0  0  0  0  0
    3.0267    2.2411    1.7165 C   0  0  0  0  0  0  0  0  0  0  0  0
    4.5467    2.2411    1.7165 C   0  0  0  0  0  0  0  0  0  0  0  0
    5.2311    1.6356    2.7653 C   0  0  0  0  0  0  0  0  0  0  0  0
    6.6219    1.6325    2.7691 C   0  0  0  0  0  0  0  0  0  0  0  0
    7.3116    2.2356    1.7220 C   0  0  0  0  0  0  0  0  0  0  0  0
    8.6614    2.2352    1.7220 O   0  0  0  0  0  0  0  0  0  0  0  0
    6.6320    2.8428    0.6710 C   0  0  0  0  0  0  0  0  0  0  0  0
    5.2412    2.8426    0.6720 C   0  0  0  0  0  0  0  0  0  0  0  0
  1  2  2  0
  2  3  1  0
  3  4  1  0
  4  5  1  0
  5  6  1  0
  6  7  1  0
  7  8  1  0
  8  9  1  0
  9 10  1  0
 10  8  1  0
  4 11  1  0
 11 12  1  0
  2 13  1  0
 13 14  1  0
 14 15  1  0
 15 16  2  0
 15 17  1  0
 17 18  1  0
 18 19  1  0
 18 20  1  0
 13 21  1  0
 21 22  1  0
 22 23  2  0
 23 24  1  0
 24 25  2  0
 25 26  1  0
 25 27  1  0
 27 28  2  0
 28 22  1  0
M  END
$$$$
s_22____13270548____17513450
     RDKit          3D

 25 25  0  0  0  0  0  0  0  0999 V2000
    0.9150    1.0000    3.2257 O   0  0  0  0  0  0  0  0  0  0  0  0
    0.3150    1.0000    2.1865 C   0  0  0  0  0  0  0  0  0  0  0  0
    1.0000    1.0000    1.0000 N   0  0  0  0  0  0  0  0  0  0  0  0
    2.4500    1.0000    1.0000 N   0  0  0  0  0  0  0  0  0  0  0  0
    2.9400    2.3859    1.0000 C   0  0  0  0  0  0  0  0  0  0  0  0
    4.3785    2.4147    1.4901 C   0  0  0  0  0  0  0  0  0  0  0  0
    4.8852    3.8478    1.4901 C   0  0  0  0  0  0  0  0  0  0  0  0
    4.4442    1.8541    2.9014 C   0  0  0  0  0  0  0  0  0  0  0  0
    2.9400    0.3070   -0.2002 C   0  0  0  0  0  0  0  0  0  0  0  0
    2.0739    0.6830   -1.3914 C   0  0  0  0  0  0  0  0  0  0  0  0
    2.5472    0.0136   -2.5509 O   0  0  0  0  0  0  0  0  0  0  0  0
    1.7381    0.3648   -3.6637 C   0  0  0  0  0  0  0  0  0  0  0  0
   -1.2050    1.0000    2.1865 C   0  0  0  0  0  0  0  0  0  0  0  0
   -1.6950    1.0000    3.5724 N   0  0  0  0  0  0  0  0  0  0  0  0
   -2.4826    2.0275    4.0205 C   0  0  0  0  0  0  0  0  0  0  0  0
   -2.7725    2.9275    3.2816 O   0  0  0  0  0  0  0  0  0  0  0  0
   -2.9893    2.0275    5.4535 C   0  0  0  0  0  0  0  0  0  0  0  0
   -1.7117   -0.2411    1.4699 C   0  0  0  0  0  0  0  0  0  0  0  0
   -3.2317   -0.2411    1.4699 C   0  0  0  0  0  0  0  0  0  0  0  0
   -3.9161    0.3644    0.4212 C   0  0  0  0  0  0  0  0  0  0  0  0
   -5.3069    0.3662    0.4166 C   0  0  0  0  0  0  0  0  0  0  0  0
   -5.9966   -0.2391    1.4624 C   0  0  0  0  0  0  0  0  0  0  0  0
   -7.3464   -0.2393    1.4621 O   0  0  0  0  0  0  0  0  0  0  0  0
   -5.3170   -0.8457    2.5138 C   0  0  0  0  0  0  0  0  0  0  0  0
   -3.9262   -0.8449    2.5131 C   0  0  0  0  0  0  0  0  0  0  0  0
  1  2  2  0
  2  3  1  0
  3  4  1  0
  4  5  1  0
  5  6  1  0
  6  7  1  0
  6  8  1  0
  4  9  1  0
  9 10  1  0
 10 11  1  0
 11 12  1  0
  2 13  1  0
 13 14  1  0
 14 15  1  0
 15 16  2  0
 15 17  1  0
 13 18  1  0
 18 19  1  0
 19 20  2  0
 20 21  1  0
 21 22  2  0
 22 23  1  0
 22 24  1  0
 24 25  2  0
 25 19  1  0
M  END
$$$$
s_22____15273282____12624298
     RDKit          3D

 26 28  0  0  0  0  0  0  0  0999 V2000
   -3.2532    2.9621    3.7123 Br  0  0  0  0  0  0  0  0  0  0  0  0
   -2.2210    1.4911    2.9303 C   0  0  0  0  0  0  0  0  0  0  0  0
   -1.0269    1.7627    2.2714 C   0  0  0  0  0  0  0  0  0  0  0  0
   -0.3061    0.7074    1.7209 C   0  0  0  0  0  0  0  0  0  0  0  0
   -0.7634   -0.6021    1.8222 C   0  0  0  0  0  0  0  0  0  0  0  0
   -1.9607   -0.8513    2.4850 C   0  0  0  0  0  0  0  0  0  0  0  0
   -2.6966    0.1890    3.0425 C   0  0  0  0  0  0  0  0  0  0  0  0
    1.0000    1.0000    1.0000 C   0  0  0  0  0  0  0  0  0  0  0  0
    1.8487    1.8487    1.8487 N   0  0  0  0  0  0  0  0  0  0  0  0
    3.0831    1.4052    2.2442 C   0  0  0  0  0  0  0  0  0  0  0  0
    3.4716    0.3240    1.8978 O   0  0  0  0  0  0  0  0  0  0  0  0
    3.9607    2.2828    3.1218 C   0  0  0  0  0  0  0  0  0  0  0  0
    0.7075    1.7208   -0.3059 C   0  0  0  0  0  0  0  0  0  0  0  0
   -0.3868    1.6571   -0.7943 O   0  0  0  0  0  0  0  0  0  0  0  0
    1.6931    2.4433   -0.9252 N   0  0  0  0  0  0  0  0  0  0  0  0
    1.4106    3.1394   -2.1863 C   0  0  0  0  0  0  0  0  0  0  0  0
    2.3215    2.6224   -3.2889 C   0  0  0  0  0  0  0  0  0  0  0  0
    1.9880    3.3728   -4.5685 C   0  0  0  0  0  0  0  0  0  0  0  0
    2.1711    4.7762   -4.3729 O   0  0  0  0  0  0  0  0  0  0  0  0
    1.3518    5.3292   -3.3513 C   0  0  0  0  0  0  0  0  0  0  0  0
    1.6084    4.6376   -2.0210 C   0  0  0  0  0  0  0  0  0  0  0  0
    2.9061    2.7960   -5.6370 C   0  0  0  0  0  0  0  0  0  0  0  0
    2.8031    3.4932   -6.9884 C   0  0  0  0  0  0  0  0  0  0  0  0
    1.1140    3.2045   -7.5659 S   0  0  0  0  0  0  0  0  0  0  0  0
    0.0864    3.7600   -6.1866 C   0  0  0  0  0  0  0  0  0  0  0  0
    0.5676    2.9849   -4.9703 C   0  0  0  0  0  0  0  0  0  0  0  0
  1  2  1  0
  2  3  2  0
  3  4  1  0
  4  5  2  0
  5  6  1  0
  6  7  2  0
  7  2  1  0
  4  8  1  0
  8  9  1  0
  9 10  1  0
 10 11  2  0
 10 12  1  0
  8 13  1  0
 13 14  2  0
 13 15  1  0
 15 16  1  0
 16 17  1  0
 17 18  1  0
 18 19  1  0
 19 20  1  0
 20 21  1  0
 21 16  1  0
 18 22  1  0
 22 23  1  0
 23 24  1  0
 24 25  1  0
 25 26  1  0
 26 18  1  0
M  END
$$$$
s_272164____17324146____17335802
     RDKit          3D

 26 27  0  0  0  0  0  0  0  0999 V2000
    2.6887    0.5044    7.5024 Cl  0  0  0  0  0  0  0  0  0  0  0  0
    1.9775    0.4870    5.8712 C   0  0  0  0  0  0  0  0  0  0  0  0
    1.4746   -0.7014    5.3520 C   0  0  0  0  0  0  0  0  0  0  0  0
    0.9206   -0.7088    4.0765 C   0  0  0  0  0  0  0  0  0  0  0  0
    0.8744    0.4676    3.3359 C   0  0  0  0  0  0  0  0  0  0  0  0
    0.3150    0.4522    2.0524 N   0  0  0  0  0  0  0  0  0  0  0  0
    1.0000    1.0000    1.0000 C   0  0  0  0  0  0  0  0  0  0  0  0
    0.4000    1.4798    0.0782 O   0  0  0  0  0  0  0  0  0  0  0  0
    2.4026    1.0000    1.0000 N   0  0  0  0  0  0  0  0  0  0  0  0
    3.2543    1.8745    0.1987 C   0  0  0  0  0  0  0  0  0  0  0  0
    4.4055    2.1416    1.1415 C   0  0  0  0  0  0  0  0  0  0  0  0
    5.5881    2.4796    0.4336 O   0  0  0  0  0  0  0  0  0  0  0  0
    5.2708    3.3856   -0.6128 C   0  0  0  0  0  0  0  0  0  0  0  0
    6.5374    3.7477   -1.3710 C   0  0  0  0  0  0  0  0  0  0  0  0
    6.1977    4.7175   -2.4911 C   0  0  0  0  0  0  0  0  0  0  0  0
    7.4644    5.0796   -3.2493 C   0  0  0  0  0  0  0  0  0  0  0  0
    5.2067    4.0663   -3.4419 C   0  0  0  0  0  0  0  0  0  0  0  0
    4.5899    0.8507    1.9152 C   0  0  0  0  0  0  0  0  0  0  0  0
    3.2597    0.1188    1.8005 C   0  0  0  0  0  0  0  0  0  0  0  0
   -1.0073   -0.1518    1.8341 C   0  0  0  0  0  0  0  0  0  0  0  0
   -2.0836    0.9063    2.0142 C   0  0  0  0  0  0  0  0  0  0  0  0
   -3.3609    0.3228    1.8033 O   0  0  0  0  0  0  0  0  0  0  0  0
   -3.7090    0.4289    0.4308 C   0  0  0  0  0  0  0  0  0  0  0  0
   -5.0763   -0.1956    0.2051 C   0  0  0  0  0  0  0  0  0  0  0  0
    1.3791    1.6521    3.8607 C   0  0  0  0  0  0  0  0  0  0  0  0
    1.9347    1.6665    5.1355 C   0  0  0  0  0  0  0  0  0  0  0  0
  1  2  1  0
  2  3  2  0
  3  4  1  0
  4  5  2  0
  5  6  1  0
  6  7  1  0
  7  8  2  0
  7  9  1  0
  9 10  1  0
 10 11  1  0
 11 12  1  0
 12 13  1  0
 13 14  1  0
 14 15  1  0
 15 16  1  0
 15 17  1  0
 11 18  1  0
 18 19  1  0
 19  9  1  0
  6 20  1  0
 20 21  1  0
 21 22  1  0
 22 23  1  0
 23 24  1  0
  5 25  1  0
 25 26  2  0
 26  2  1  0
M  END
$$$$
s_22____12218606____107338
     RDKit          3D

 26 27  0  0  0  0  0  0  0  0999 V2000
    0.4000    1.8918    1.5335 O   0  0  0  0  0  0  0  0  0  0  0  0
    1.0000    1.0000    1.0000 C   0  0  0  0  0  0  0  0  0  0  0  0
    2.4002    1.0000    1.0000 N   0  0  0  0  0  0  0  0  0  0  0  0
    3.4778    0.1432    0.4874 C   0  0  0  0  0  0  0  0  0  0  0  0
    4.2886    0.6540    1.6538 C   0  0  0  0  0  0  0  0  0  0  0  0
    5.6270    0.9263    1.2606 O   0  0  0  0  0  0  0  0  0  0  0  0
    6.5168    0.1231    2.0218 C   0  0  0  0  0  0  0  0  0  0  0  0
    6.2065   -1.3452    1.7802 C   0  0  0  0  0  0  0  0  0  0  0  0
    7.1589   -2.2051    2.5951 C   0  0  0  0  0  0  0  0  0  0  0  0
    7.9481    0.4143    1.6013 C   0  0  0  0  0  0  0  0  0  0  0  0
    6.3481    0.4402    3.4987 C   0  0  0  0  0  0  0  0  0  0  0  0
    3.4323    1.8910    1.5142 C   0  0  0  0  0  0  0  0  0  0  0  0
    0.2400   -0.1297    0.3242 C   0  0  0  0  0  0  0  0  0  0  0  0
   -1.2356    0.2271    0.2477 C   0  0  0  0  0  0  0  0  0  0  0  0
   -2.0400   -1.0023    0.2949 N   0  0  0  0  0  0  0  0  0  0  0  0
   -2.9486   -1.1881    1.3033 C   0  0  0  0  0  0  0  0  0  0  0  0
   -3.0878   -0.3472    2.1480 O   0  0  0  0  0  0  0  0  0  0  0  0
   -3.7804   -2.4593    1.3522 C   0  0  0  0  0  0  0  0  0  0  0  0
   -1.5119    0.9638   -1.0529 C   0  0  0  0  0  0  0  0  0  0  0  0
   -1.1993    0.3551   -2.2639 C   0  0  0  0  0  0  0  0  0  0  0  0
   -1.4511    1.0250   -3.4565 C   0  0  0  0  0  0  0  0  0  0  0  0
   -2.0137    2.2971   -3.4225 C   0  0  0  0  0  0  0  0  0  0  0  0
   -2.2594    2.9510   -4.5775 O   0  0  0  0  0  0  0  0  0  0  0  0
   -2.7644    4.2779   -4.5487 C   0  0  0  0  0  0  0  0  0  0  0  0
   -2.3279    2.9105   -2.2141 C   0  0  0  0  0  0  0  0  0  0  0  0
   -2.0744    2.2358   -1.0246 C   0  0  0  0  0  0  0  0  0  0  0  0
  1  2  2  0
  2  3  1  0
  3  4  1  0
  4  5  1  0
  5  6  1  0
  6  7  1  0
  7  8  1  0
  8  9  1  0
  7 10  1  0
  7 11  1  0
  5 12  1  0
 12  3  1  0
  2 13  1  0
 13 14  1  0
 14 15  1  0
 15 16  1  0
 16 17  2  0
 16 18  1  0
 14 19  1  0
 19 20  2  0
 20 21  1  0
 21 22  2  0
 22 23  1  0
 23 24  1  0
 22 25  1  0
 25 26  2  0
 26 19  1  0
M  END
$$$$
s_2708____12856152____7557148
     RDKit          3D

 25 26  0  0  0  0  0  0  0  0999 V2000
    0.4000   -0.0392    1.0000 O   0  0  0  0  0  0  0  0  0  0  0  0
    1.0000    1.0000    1.0000 C   0  0  0  0  0  0  0  0  0  0  0  0
    0.3150    2.1865    1.0000 N   0  0  0  0  0  0  0  0  0  0  0  0
   -1.1550    2.1865    1.0000 C   0  0  0  0  0  0  0  0  0  0  0  0
   -1.6618    2.4354   -0.4116 C   0  0  0  0  0  0  0  0  0  0  0  0
   -1.8915    3.7382   -0.8415 C   0  0  0  0  0  0  0  0  0  0  0  0
   -2.3559    3.9614   -2.1336 C   0  0  0  0  0  0  0  0  0  0  0  0
   -2.5860    2.8862   -2.9855 C   0  0  0  0  0  0  0  0  0  0  0  0
   -2.3526    1.5892   -2.5454 C   0  0  0  0  0  0  0  0  0  0  0  0
   -1.8887    1.3527   -1.2555 C   0  0  0  0  0  0  0  0  0  0  0  0
    1.0500    3.4595    1.0000 C   0  0  0  0  0  0  0  0  0  0  0  0
    1.3033    3.8983    2.4331 C   0  0  0  0  0  0  0  0  0  0  0  0
    0.0626    4.0681    3.1025 O   0  0  0  0  0  0  0  0  0  0  0  0
    2.0633    5.2147    2.4331 C   0  0  0  0  0  0  0  0  0  0  0  0
    2.3167    5.6534    3.8661 C   0  0  0  0  0  0  0  0  0  0  0  0
    2.3700    1.0000    1.0000 N   0  0  0  0  0  0  0  0  0  0  0  0
    3.1050   -0.2731    1.0000 C   0  0  0  0  0  0  0  0  0  0  0  0
    4.5975    0.0043    1.0000 C   0  0  0  0  0  0  0  0  0  0  0  0
    5.3968   -1.1684    1.0000 O   0  0  0  0  0  0  0  0  0  0  0  0
    5.1102   -1.9365   -0.1594 C   0  0  0  0  0  0  0  0  0  0  0  0
    6.3753   -2.0962   -0.9868 C   0  0  0  0  0  0  0  0  0  0  0  0
    4.5990   -3.3068    0.2543 C   0  0  0  0  0  0  0  0  0  0  0  0
    4.9727    1.0385    2.0329 C   0  0  0  0  0  0  0  0  0  0  0  0
    5.9288    1.6079    1.0087 C   0  0  0  0  0  0  0  0  0  0  0  0
    4.9703    1.0546   -0.0232 C   0  0  0  0  0  0  0  0  0  0  0  0
  1  2  2  0
  2  3  1  0
  3  4  1  0
  4  5  1  0
  5  6  2  0
  6  7  1  0
  7  8  2  0
  8  9  1  0
  9 10  2  0
 10  5  1  0
  3 11  1  0
 11 12  1  0
 12 13  1  0
 12 14  1  0
 14 15  1  0
  2 16  1  0
 16 17  1  0
 17 18  1  0
 18 19  1  0
 19 20  1  0
 20 21  1  0
 20 22  1  0
 18 23  1  0
 23 24  1  0
 24 25  1  0
 25 18  1  0
M  END
$$$$
s_272212____13255726____11403114
     RDKit          3D

 26 28  0  0  0  0  0  0  0  0999 V2000
    6.5979   -0.1423    3.8790 O   0  0  0  0  0  0  0  0  0  0  0  0
    6.0366    0.2423    4.8922 C   0  0  0  0  0  0  0  0  0  0  0  0
    4.8860    1.0335    4.9176 N   0  0  0  0  0  0  0  0  0  0  0  0
    4.5227    1.2803    6.2389 C   0  0  0  0  0  0  0  0  0  0  0  0
    3.5588    1.9279    6.6146 O   0  0  0  0  0  0  0  0  0  0  0  0
    5.5294    0.5893    7.1290 C   0  0  0  0  0  0  0  0  0  0  0  0
    6.4613   -0.0447    6.1919 N   0  0  0  0  0  0  0  0  0  0  0  0
    4.8654   -0.4455    8.0232 C   0  0  0  0  0  0  0  0  0  0  0  0
    4.0945   -1.4365    7.1656 C   0  0  0  0  0  0  0  0  0  0  0  0
    4.7226   -2.5859    6.6961 C   0  0  0  0  0  0  0  0  0  0  0  0
    6.0161   -2.8363    6.9920 O   0  0  0  0  0  0  0  0  0  0  0  0
    4.0173   -3.4926    5.9112 C   0  0  0  0  0  0  0  0  0  0  0  0
    2.6837   -3.2501    5.5964 C   0  0  0  0  0  0  0  0  0  0  0  0
    2.0559   -2.1010    6.0667 C   0  0  0  0  0  0  0  0  0  0  0  0
    2.7612   -1.1947    6.8517 C   0  0  0  0  0  0  0  0  0  0  0  0
    4.1716    1.5261    3.7319 C   0  0  0  0  0  0  0  0  0  0  0  0
    4.1398    3.0464    3.7273 C   0  0  0  0  0  0  0  0  0  0  0  0
    3.3502    3.5170    2.5161 C   0  0  0  0  0  0  0  0  0  0  0  0
    2.0234    3.0043    2.5317 O   0  0  0  0  0  0  0  0  0  0  0  0
    1.9948    1.5834    2.5350 C   0  0  0  0  0  0  0  0  0  0  0  0
    2.7366    1.0220    3.7388 C   0  0  0  0  0  0  0  0  0  0  0  0
    3.3654    5.0373    2.5149 C   0  0  0  0  0  0  0  0  0  0  0  0
    2.6398    5.5503    1.2817 C   0  0  0  0  0  0  0  0  0  0  0  0
    3.3369    5.0356    0.0329 C   0  0  0  0  0  0  0  0  0  0  0  0
    2.6683    5.5520    3.7637 C   0  0  0  0  0  0  0  0  0  0  0  0
    2.6835    7.0719    3.7625 C   0  0  0  0  0  0  0  0  0  0  0  0
  1  2  2  0
  2  3  1  0
  3  4  1  0
  4  5  2  0
  4  6  1  0
  6  7  1  0
  7  2  1  0
  6  8  1  0
  8  9  1  0
  9 10  2  0
 10 11  1  0
 10 12  1  0
 12 13  2  0
 13 14  1  0
 14 15  2  0
 15  9  1  0
  3 16  1  0
 16 17  1  0
 17 18  1  0
 18 19  1  0
 19 20  1  0
 20 21  1  0
 21 16  1  0
 18 22  1  0
 22 23  1  0
 23 24  1  0
 22 25  1  0
 25 26  1  0
M  END
$$$$
s_22____15265870____518218
     RDKit          3D

 26 28  0  0  0  0  0  0  0  0999 V2000
    1.6027   -2.9469   -4.5862 Br  0  0  0  0  0  0  0  0  0  0  0  0
    2.0508   -1.5747   -3.2604 C   0  0  0  0  0  0  0  0  0  0  0  0
    2.8137   -1.9145   -2.1479 C   0  0  0  0  0  0  0  0  0  0  0  0
    3.1286   -0.9363   -1.2104 C   0  0  0  0  0  0  0  0  0  0  0  0
    2.6785    0.3669   -1.3947 C   0  0  0  0  0  0  0  0  0  0  0  0
    1.9159    0.6999   -2.5098 C   0  0  0  0  0  0  0  0  0  0  0  0
    1.5971   -0.2732   -3.4514 C   0  0  0  0  0  0  0  0  0  0  0  0
    3.0267    1.4309   -0.3667 C   0  0  0  0  0  0  0  0  0  0  0  0
    4.4855    1.6046   -0.3161 N   0  0  0  0  0  0  0  0  0  0  0  0
    5.0404    2.8242   -0.6018 C   0  0  0  0  0  0  0  0  0  0  0  0
    4.3356    3.7506   -0.8934 O   0  0  0  0  0  0  0  0  0  0  0  0
    6.4000    2.9861   -0.5546 N   0  0  0  0  0  0  0  0  0  0  0  0
    2.5200    1.0000    1.0000 C   0  0  0  0  0  0  0  0  0  0  0  0
    1.0000    1.0000    1.0000 C   0  0  0  0  0  0  0  0  0  0  0  0
    0.4000    1.0000   -0.0392 O   0  0  0  0  0  0  0  0  0  0  0  0
    0.3150    1.0000    2.1865 N   0  0  0  0  0  0  0  0  0  0  0  0
   -1.1550    1.0000    2.1865 C   0  0  0  0  0  0  0  0  0  0  0  0
   -1.6614    1.0000    3.6188 C   0  0  0  0  0  0  0  0  0  0  0  0
   -1.2065    2.1542    4.3314 O   0  0  0  0  0  0  0  0  0  0  0  0
   -2.1890    2.5641    5.2569 C   0  0  0  0  0  0  0  0  0  0  0  0
   -3.2760    1.5022    5.1812 C   0  0  0  0  0  0  0  0  0  0  0  0
   -3.1503    1.2541    3.6989 C   0  0  0  0  0  0  0  0  0  0  0  0
   -2.9652    0.2965    6.0586 C   0  0  0  0  0  0  0  0  0  0  0  0
   -1.5511   -0.2240    5.8426 C   0  0  0  0  0  0  0  0  0  0  0  0
   -1.2028   -0.2486    4.3616 C   0  0  0  0  0  0  0  0  0  0  0  0
   -4.6402    2.0771    5.5337 C   0  0  0  0  0  0  0  0  0  0  0  0
  1  2  1  0
  2  3  2  0
  3  4  1  0
  4  5  2  0
  5  6  1  0
  6  7  2  0
  7  2  1  0
  5  8  1  0
  8  9  1  0
  9 10  1  0
 10 11  2  0
 10 12  1  0
  8 13  1  0
 13 14  1  0
 14 15  2  0
 14 16  1  0
 16 17  1  0
 17 18  1  0
 18 19  1  0
 19 20  1  0
 20 21  1  0
 21 22  1  0
 22 18  1  0
 21 23  1  0
 23 24  1  0
 24 25  1  0
 25 18  1  0
 21 26  1  0
M  END
$$$$
s_22____12222500____7344254
     RDKit          3D

 26 27  0  0  0  0  0  0  0  0999 V2000
    7.8505    2.2765    6.1343 Cl  0  0  0  0  0  0  0  0  0  0  0  0
    7.5813    0.5924    6.6441 C   0  0  0  0  0  0  0  0  0  0  0  0
    6.7130   -0.2341    5.9382 C   0  0  0  0  0  0  0  0  0  0  0  0
    6.5115   -1.5482    6.3476 C   0  0  0  0  0  0  0  0  0  0  0  0
    7.1864   -2.0244    7.4670 C   0  0  0  0  0  0  0  0  0  0  0  0
    6.9865   -3.3467    7.8833 N   0  0  0  0  0  0  0  0  0  0  0  0
    8.0458   -4.0918    8.3301 C   0  0  0  0  0  0  0  0  0  0  0  0
    9.1667   -3.7735    8.0431 O   0  0  0  0  0  0  0  0  0  0  0  0
    7.8013   -5.3215    9.1894 C   0  0  0  0  0  0  0  0  0  0  0  0
    8.0563   -1.2041    8.1780 C   0  0  0  0  0  0  0  0  0  0  0  0
    8.2526    0.1090    7.7627 C   0  0  0  0  0  0  0  0  0  0  0  0
    6.0035    0.2503    4.7704 C   0  0  0  0  0  0  0  0  0  0  0  0
    6.3929   -0.0333    3.6713 O   0  0  0  0  0  0  0  0  0  0  0  0
    4.8884    1.0318    4.9217 N   0  0  0  0  0  0  0  0  0  0  0  0
    4.1692    1.5228    3.7379 C   0  0  0  0  0  0  0  0  0  0  0  0
    4.1551    3.0429    3.7333 C   0  0  0  0  0  0  0  0  0  0  0  0
    3.4088    3.5546    2.5118 C   0  0  0  0  0  0  0  0  0  0  0  0
    1.9831    3.0265    2.5092 C   0  0  0  0  0  0  0  0  0  0  0  0
    1.2946    3.4962    1.3600 O   0  0  0  0  0  0  0  0  0  0  0  0
   -0.0349    2.9973    1.3678 C   0  0  0  0  0  0  0  0  0  0  0  0
   -0.7721    3.5002    0.1373 C   0  0  0  0  0  0  0  0  0  0  0  0
   -2.1951    2.9661    0.1457 C   0  0  0  0  0  0  0  0  0  0  0  0
   -2.1661    1.4465    0.1331 C   0  0  0  0  0  0  0  0  0  0  0  0
   -2.9101    3.4488    1.3972 C   0  0  0  0  0  0  0  0  0  0  0  0
    2.0046    1.5065    2.5106 C   0  0  0  0  0  0  0  0  0  0  0  0
    2.7461    0.9884    3.7324 C   0  0  0  0  0  0  0  0  0  0  0  0
  1  2  1  0
  2  3  2  0
  3  4  1  0
  4  5  2  0
  5  6  1  0
  6  7  1  0
  7  8  2  0
  7  9  1  0
  5 10  1  0
 10 11  2  0
 11  2  1  0
  3 12  1  0
 12 13  2  0
 12 14  1  0
 14 15  1  0
 15 16  1  0
 16 17  1  0
 17 18  1  0
 18 19  1  0
 19 20  1  0
 20 21  1  0
 21 22  1  0
 22 23  1  0
 22 24  1  0
 18 25  1  0
 25 26  1  0
 26 15  1  0
M  END
$$$$
s_2708____8333320____11765628
     RDKit          3D

 27 29  0  0  0  0  0  0  0  0999 V2000
    2.9700    2.0392    1.0000 O   0  0  0  0  0  0  0  0  0  0  0  0
    2.3700    1.0000    1.0000 C   0  0  0  0  0  0  0  0  0  0  0  0
    3.0550   -0.1865    1.0000 N   0  0  0  0  0  0  0  0  0  0  0  0
    4.5250   -0.1865    1.0000 C   0  0  0  0  0  0  0  0  0  0  0  0
    5.0321   -0.9036   -0.2421 C   0  0  0  0  0  0  0  0  0  0  0  0
    4.6469   -0.6792   -1.4855 O   0  0  0  0  0  0  0  0  0  0  0  0
    5.3003   -1.4861   -2.2911 C   0  0  0  0  0  0  0  0  0  0  0  0
    6.1339   -2.2431   -1.5195 C   0  0  0  0  0  0  0  0  0  0  0  0
    5.9428   -1.8551   -0.2234 N   0  0  0  0  0  0  0  0  0  0  0  0
    5.0317   -0.9030    2.2411 C   0  0  0  0  0  0  0  0  0  0  0  0
    4.5249   -0.1863    3.4824 C   0  0  0  0  0  0  0  0  0  0  0  0
    3.3086   -0.5591    4.0450 C   0  0  0  0  0  0  0  0  0  0  0  0
    2.8482    0.0998    5.1803 C   0  0  0  0  0  0  0  0  0  0  0  0
    3.6032    1.1222    5.7453 C   0  0  0  0  0  0  0  0  0  0  0  0
    4.8169    1.4858    5.1750 C   0  0  0  0  0  0  0  0  0  0  0  0
    5.2879    0.8351    4.0394 C   0  0  0  0  0  0  0  0  0  0  0  0
    1.0000    1.0000    1.0000 N   0  0  0  0  0  0  0  0  0  0  0  0
    0.2628    2.2769    1.0000 C   0  0  0  0  0  0  0  0  0  0  0  0
   -0.6190    2.3785    2.2347 C   0  0  0  0  0  0  0  0  0  0  0  0
   -1.4001    3.6816    2.1739 C   0  0  0  0  0  0  0  0  0  0  0  0
   -2.1999    3.7517    0.9997 O   0  0  0  0  0  0  0  0  0  0  0  0
   -1.4235    3.6628   -0.1873 C   0  0  0  0  0  0  0  0  0  0  0  0
   -0.6296    2.3656   -0.2284 C   0  0  0  0  0  0  0  0  0  0  0  0
   -2.2437    3.7757    3.4352 C   0  0  0  0  0  0  0  0  0  0  0  0
   -1.3411    3.6958    4.6556 C   0  0  0  0  0  0  0  0  0  0  0  0
   -0.3453    4.8438    4.6253 C   0  0  0  0  0  0  0  0  0  0  0  0
   -2.1846    3.7899    5.9167 C   0  0  0  0  0  0  0  0  0  0  0  0
  1  2  2  0
  2  3  1  0
  3  4  1  0
  4  5  1  0
  5  6  1  0
  6  7  1  0
  7  8  2  0
  8  9  1  0
  5  9  2  0
  4 10  1  0
 10 11  1  0
 11 12  2  0
 12 13  1  0
 13 14  2  0
 14 15  1  0
 15 16  2  0
 16 11  1  0
  2 17  1  0
 17 18  1  0
 18 19  1  0
 19 20  1  0
 20 21  1  0
 21 22  1  0
 22 23  1  0
 23 18  1  0
 20 24  1  0
 24 25  1  0
 25 26  1  0
 25 27  1  0
M  END
$$$$
s_271948____12222540____9915610
     RDKit          3D

 27 28  0  0  0  0  0  0  0  0999 V2000
   -1.8050    0.6469   -0.2327 O   0  0  0  0  0  0  0  0  0  0  0  0
   -1.2050    1.6569    0.0120 C   0  0  0  0  0  0  0  0  0  0  0  0
   -1.8900    2.8100    0.2913 N   0  0  0  0  0  0  0  0  0  0  0  0
   -3.3600    2.8100    0.2913 C   0  0  0  0  0  0  0  0  0  0  0  0
   -3.8665    2.7196    1.7210 C   0  0  0  0  0  0  0  0  0  0  0  0
   -4.0914    3.8935    2.4326 C   0  0  0  0  0  0  0  0  0  0  0  0
   -4.5557    3.8086    3.7405 C   0  0  0  0  0  0  0  0  0  0  0  0
   -4.7795    4.9351    4.4493 O   0  0  0  0  0  0  0  0  0  0  0  0
   -4.7910    2.5698    4.3281 C   0  0  0  0  0  0  0  0  0  0  0  0
   -4.5611    1.4025    3.6064 C   0  0  0  0  0  0  0  0  0  0  0  0
   -4.0977    1.4743    2.2968 C   0  0  0  0  0  0  0  0  0  0  0  0
   -1.1550    4.0473    0.5911 C   0  0  0  0  0  0  0  0  0  0  0  0
    0.3150    1.6569    0.0120 C   0  0  0  0  0  0  0  0  0  0  0  0
    0.9150    2.2323   -0.8534 O   0  0  0  0  0  0  0  0  0  0  0  0
    1.0000    1.0000    1.0000 N   0  0  0  0  0  0  0  0  0  0  0  0
    2.4696    1.0000    1.0000 C   0  0  0  0  0  0  0  0  0  0  0  0
    2.9881   -0.4262    0.9098 C   0  0  0  0  0  0  0  0  0  0  0  0
    4.5082   -0.4304    0.9131 C   0  0  0  0  0  0  0  0  0  0  0  0
    5.0316    0.2286    2.1793 C   0  0  0  0  0  0  0  0  0  0  0  0
    6.4513    0.2341    2.1713 O   0  0  0  0  0  0  0  0  0  0  0  0
    6.9155    0.9578    1.0412 C   0  0  0  0  0  0  0  0  0  0  0  0
    8.4354    0.9637    1.0327 C   0  0  0  0  0  0  0  0  0  0  0  0
    8.9323    1.7384   -0.1770 C   0  0  0  0  0  0  0  0  0  0  0  0
    8.4211    1.0776   -1.4468 C   0  0  0  0  0  0  0  0  0  0  0  0
    8.4205    3.1680   -0.1084 C   0  0  0  0  0  0  0  0  0  0  0  0
    4.5121    1.6548    2.2615 C   0  0  0  0  0  0  0  0  0  0  0  0
    2.9919    1.6656    2.2630 C   0  0  0  0  0  0  0  0  0  0  0  0
  1  2  2  0
  2  3  1  0
  3  4  1  0
  4  5  1  0
  5  6  2  0
  6  7  1  0
  7  8  1  0
  7  9  2  0
  9 10  1  0
 10 11  2  0
 11  5  1  0
  3 12  1  0
  2 13  1  0
 13 14  2  0
 13 15  1  0
 15 16  1  0
 16 17  1  0
 17 18  1  0
 18 19  1  0
 19 20  1  0
 20 21  1  0
 21 22  1  0
 22 23  1  0
 23 24  1  0
 23 25  1  0
 19 26  1  0
 26 27  1  0
 27 16  1  0
M  END
$$$$
s_22____8765752____107333
     RDKit          3D

 25 26  0  0  0  0  0  0  0  0999 V2000
    3.0033   -3.4731   -4.2329 Br  0  0  0  0  0  0  0  0  0  0  0  0
    3.0121   -1.9353   -3.0178 C   0  0  0  0  0  0  0  0  0  0  0  0
    3.7368   -1.9981   -1.8321 C   0  0  0  0  0  0  0  0  0  0  0  0
    3.7393   -0.9035   -0.9737 C   0  0  0  0  0  0  0  0  0  0  0  0
    3.0192    0.2383   -1.3090 C   0  0  0  0  0  0  0  0  0  0  0  0
    2.2965    0.2944   -2.4965 C   0  0  0  0  0  0  0  0  0  0  0  0
    2.2893   -0.7964   -3.3598 C   0  0  0  0  0  0  0  0  0  0  0  0
    3.0267    1.4309   -0.3667 C   0  0  0  0  0  0  0  0  0  0  0  0
    4.3972    1.9473   -0.2408 N   0  0  0  0  0  0  0  0  0  0  0  0
    4.6793    3.2374   -0.6054 C   0  0  0  0  0  0  0  0  0  0  0  0
    3.8076    3.9459   -1.0276 O   0  0  0  0  0  0  0  0  0  0  0  0
    6.0965    3.7714   -0.4752 C   0  0  0  0  0  0  0  0  0  0  0  0
    2.5200    1.0000    1.0000 C   0  0  0  0  0  0  0  0  0  0  0  0
    1.0000    1.0000    1.0000 C   0  0  0  0  0  0  0  0  0  0  0  0
    0.4000    1.0000   -0.0392 O   0  0  0  0  0  0  0  0  0  0  0  0
    0.3150    1.0000    2.1865 N   0  0  0  0  0  0  0  0  0  0  0  0
   -1.1534    1.0000    2.1865 C   0  0  0  0  0  0  0  0  0  0  0  0
   -1.7070   -0.2164    2.8888 C   0  0  0  0  0  0  0  0  0  0  0  0
   -2.2710   -1.1628    1.9887 O   0  0  0  0  0  0  0  0  0  0  0  0
   -2.0060   -2.4771    2.4565 C   0  0  0  0  0  0  0  0  0  0  0  0
   -2.7659    0.6926    3.4700 C   0  0  0  0  0  0  0  0  0  0  0  0
   -3.0562    0.3644    4.8208 O   0  0  0  0  0  0  0  0  0  0  0  0
   -1.8781    0.4936    5.6029 C   0  0  0  0  0  0  0  0  0  0  0  0
   -2.1887    0.1423    7.0488 C   0  0  0  0  0  0  0  0  0  0  0  0
   -1.7308    1.7843    3.3431 C   0  0  0  0  0  0  0  0  0  0  0  0
  1  2  1  0
  2  3  2  0
  3  4  1  0
  4  5  2  0
  5  6  1  0
  6  7  2  0
  7  2  1  0
  5  8  1  0
  8  9  1  0
  9 10  1  0
 10 11  2  0
 10 12  1  0
  8 13  1  0
 13 14  1  0
 14 15  2  0
 14 16  1  0
 16 17  1  0
 17 18  1  0
 18 19  1  0
 19 20  1  0
 18 21  1  0
 21 22  1  0
 22 23  1  0
 23 24  1  0
 21 25  1  0
 25 17  1  0
M  END
$$$$
s_188690b____14468518____9351394
     RDKit          3D

 26 27  0  0  0  0  0  0  0  0999 V2000
    4.1567   -1.4183    2.7878 O   0  0  0  0  0  0  0  0  0  0  0  0
    3.9789   -0.3536    2.2411 C   0  0  0  0  0  0  0  0  0  0  0  0
    4.5138    0.6801    2.6969 O   0  0  0  0  0  0  0  0  0  0  0  0
    3.1050   -0.2731    1.0000 C   0  0  0  0  0  0  0  0  0  0  0  0
    2.3700    1.0000    1.0000 N   0  0  0  0  0  0  0  0  0  0  0  0
    1.0000    1.0000    1.0000 C   0  0  0  0  0  0  0  0  0  0  0  0
    0.4000   -0.0392    1.0000 O   0  0  0  0  0  0  0  0  0  0  0  0
    0.2398    2.3167    1.0000 C   0  0  0  0  0  0  0  0  0  0  0  0
    0.5859    3.1417   -0.2336 C   0  0  0  0  0  0  0  0  0  0  0  0
   -0.4472    4.2236   -0.5234 C   0  0  0  0  0  0  0  0  0  0  0  0
   -0.1041    5.3418   -0.8812 O   0  0  0  0  0  0  0  0  0  0  0  0
   -1.8012    3.9036   -0.3507 N   0  0  0  0  0  0  0  0  0  0  0  0
   -2.1748    2.5663    0.1382 C   0  0  0  0  0  0  0  0  0  0  0  0
   -1.2513    2.1134    1.2654 C   0  0  0  0  0  0  0  0  0  0  0  0
   -3.5994    2.5481    0.6667 C   0  0  0  0  0  0  0  0  0  0  0  0
   -4.5576    2.9404   -0.4461 C   0  0  0  0  0  0  0  0  0  0  0  0
   -4.4309    1.9536   -1.5952 C   0  0  0  0  0  0  0  0  0  0  0  0
   -5.9826    2.9222    0.0825 C   0  0  0  0  0  0  0  0  0  0  0  0
    3.9789   -0.3536   -0.2411 C   0  0  0  0  0  0  0  0  0  0  0  0
    4.7391   -1.6703   -0.2411 C   0  0  0  0  0  0  0  0  0  0  0  0
    4.1226   -2.8293   -0.7023 C   0  0  0  0  0  0  0  0  0  0  0  0
    2.8499   -2.8026   -1.1526 O   0  0  0  0  0  0  0  0  0  0  0  0
    4.8182   -4.0344   -0.7021 C   0  0  0  0  0  0  0  0  0  0  0  0
    6.1304   -4.0800   -0.2412 C   0  0  0  0  0  0  0  0  0  0  0  0
    6.7466   -2.9207    0.2192 C   0  0  0  0  0  0  0  0  0  0  0  0
    6.0510   -1.7160    0.2187 C   0  0  0  0  0  0  0  0  0  0  0  0
  1  2  1  0
  2  3  2  0
  2  4  1  0
  4  5  1  0
  5  6  1  0
  6  7  2  0
  6  8  1  0
  8  9  1  0
  9 10  1  0
 10 11  2  0
 10 12  1  0
 12 13  1  0
 13 14  1  0
 14  8  1  0
 13 15  1  0
 15 16  1  0
 16 17  1  0
 16 18  1  0
  4 19  1  0
 19 20  1  0
 20 21  2  0
 21 22  1  0
 21 23  1  0
 23 24  2  0
 24 25  1  0
 25 26  2  0
 26 20  1  0
M  CHG  1   1  -1
M  END
$$$$
s_22____10565908____17513450
     RDKit          3D

 28 30  0  0  0  0  0  0  0  0999 V2000
    2.9700    2.0392    1.0000 O   0  0  0  0  0  0  0  0  0  0  0  0
    2.3700    1.0000    1.0000 C   0  0  0  0  0  0  0  0  0  0  0  0
    1.0000    1.0000    1.0000 N   0  0  0  0  0  0  0  0  0  0  0  0
    0.2659    2.2715    1.0000 C   0  0  0  0  0  0  0  0  0  0  0  0
   -0.6225    2.4056   -0.2165 C   0  0  0  0  0  0  0  0  0  0  0  0
   -0.0813    3.3763   -1.1773 N   0  0  0  0  0  0  0  0  0  0  0  0
    0.5718    4.4709   -0.8633 N   0  0  0  0  0  0  0  0  0  0  0  0
    0.9249    5.1225   -1.9464 C   0  0  0  0  0  0  0  0  0  0  0  0
    0.4517    4.3711   -3.0454 C   0  0  0  0  0  0  0  0  0  0  0  0
   -0.1787    3.2774   -2.5325 C   0  0  0  0  0  0  0  0  0  0  0  0
   -1.6295    3.0446    0.7084 C   0  0  0  0  0  0  0  0  0  0  0  0
   -2.9500    2.6287    0.3950 O   0  0  0  0  0  0  0  0  0  0  0  0
   -3.8657    3.2499    1.2848 C   0  0  0  0  0  0  0  0  0  0  0  0
   -5.2797    2.8045    0.9492 C   0  0  0  0  0  0  0  0  0  0  0  0
   -1.0132    2.1869    1.7896 C   0  0  0  0  0  0  0  0  0  0  0  0
    3.1300   -0.3164    1.0000 C   0  0  0  0  0  0  0  0  0  0  0  0
    4.5752   -0.0477    1.0000 N   0  0  0  0  0  0  0  0  0  0  0  0
    5.3571   -0.5058    2.0275 C   0  0  0  0  0  0  0  0  0  0  0  0
    4.8622   -1.1263    2.9275 O   0  0  0  0  0  0  0  0  0  0  0  0
    6.8515   -0.2281    2.0275 C   0  0  0  0  0  0  0  0  0  0  0  0
    2.7628   -1.1134   -0.2411 C   0  0  0  0  0  0  0  0  0  0  0  0
    3.5228   -2.4298   -0.2411 C   0  0  0  0  0  0  0  0  0  0  0  0
    2.9568   -3.5469    0.3644 C   0  0  0  0  0  0  0  0  0  0  0  0
    3.6482   -4.7537    0.3662 C   0  0  0  0  0  0  0  0  0  0  0  0
    4.8987   -4.8280   -0.2391 C   0  0  0  0  0  0  0  0  0  0  0  0
    5.5734   -5.9972   -0.2393 O   0  0  0  0  0  0  0  0  0  0  0  0
    5.4695   -3.7138   -0.8457 C   0  0  0  0  0  0  0  0  0  0  0  0
    4.7735   -2.5097   -0.8449 C   0  0  0  0  0  0  0  0  0  0  0  0
  1  2  2  0
  2  3  1  0
  3  4  1  0
  4  5  1  0
  5  6  1  0
  6  7  1  0
  7  8  2  0
  8  9  1  0
  9 10  2  0
 10  6  1  0
  5 11  1  0
 11 12  1  0
 12 13  1  0
 13 14  1  0
 11 15  1  0
 15  4  1  0
  2 16  1  0
 16 17  1  0
 17 18  1  0
 18 19  2  0
 18 20  1  0
 16 21  1  0
 21 22  1  0
 22 23  2  0
 23 24  1  0
 24 25  2  0
 25 26  1  0
 25 27  1  0
 27 28  2  0
 28 22  1  0
M  END
$$$$
s_22____10176574____17513450
     RDKit          3D

 21 21  0  0  0  0  0  0  0  0999 V2000
   -3.6217   -0.4331    2.1865 Br  0  0  0  0  0  0  0  0  0  0  0  0
   -1.6617   -0.4331    2.1865 C   0  0  0  0  0  0  0  0  0  0  0  0
   -1.2183   -1.0600    1.1005 F   0  0  0  0  0  0  0  0  0  0  0  0
   -1.2183   -1.0600    3.2724 F   0  0  0  0  0  0  0  0  0  0  0  0
   -1.1550    1.0000    2.1865 C   0  0  0  0  0  0  0  0  0  0  0  0
    0.3150    1.0000    2.1865 N   0  0  0  0  0  0  0  0  0  0  0  0
    1.0000    1.0000    1.0000 C   0  0  0  0  0  0  0  0  0  0  0  0
    0.4000    1.0000   -0.0392 O   0  0  0  0  0  0  0  0  0  0  0  0
    2.5200    1.0000    1.0000 C   0  0  0  0  0  0  0  0  0  0  0  0
    3.0100    1.6930   -0.2002 N   0  0  0  0  0  0  0  0  0  0  0  0
    3.2383    3.0434   -0.1663 C   0  0  0  0  0  0  0  0  0  0  0  0
    3.0383    3.6605    0.8432 O   0  0  0  0  0  0  0  0  0  0  0  0
    3.7450    3.7599   -1.4074 C   0  0  0  0  0  0  0  0  0  0  0  0
    3.0267   -0.4331    1.0000 C   0  0  0  0  0  0  0  0  0  0  0  0
    4.5467   -0.4331    1.0000 C   0  0  0  0  0  0  0  0  0  0  0  0
    5.2311   -0.4331    2.2110 C   0  0  0  0  0  0  0  0  0  0  0  0
    6.6219   -0.4338    2.2159 C   0  0  0  0  0  0  0  0  0  0  0  0
    7.3116   -0.4351    1.0075 C   0  0  0  0  0  0  0  0  0  0  0  0
    8.7316   -0.4355    1.0077 O   0  0  0  0  0  0  0  0  0  0  0  0
    6.6320   -0.4347   -0.2063 C   0  0  0  0  0  0  0  0  0  0  0  0
    5.2412   -0.4344   -0.2053 C   0  0  0  0  0  0  0  0  0  0  0  0
  1  2  1  0
  2  3  1  0
  2  4  1  0
  2  5  1  0
  5  6  1  0
  6  7  1  0
  7  8  2  0
  7  9  1  0
  9 10  1  0
 10 11  1  0
 11 12  2  0
 11 13  1  0
  9 14  1  0
 14 15  1  0
 15 16  2  0
 16 17  1  0
 17 18  2  0
 18 19  1  0
 18 20  1  0
 20 21  2  0
 21 15  1  0
M  END
$$$$
s_22____8124984____17513450
     RDKit          3D

 21 21  0  0  0  0  0  0  0  0999 V2000
   -1.1530   -1.2257    2.1865 O   0  0  0  0  0  0  0  0  0  0  0  0
   -1.7530   -0.1865    2.1865 C   0  0  0  0  0  0  0  0  0  0  0  0
   -1.0680    1.0000    2.1865 N   0  0  0  0  0  0  0  0  0  0  0  0
    0.3150    1.0000    2.1865 N   0  0  0  0  0  0  0  0  0  0  0  0
    1.0000    1.0000    1.0000 C   0  0  0  0  0  0  0  0  0  0  0  0
    0.4000    1.0000   -0.0392 O   0  0  0  0  0  0  0  0  0  0  0  0
    2.5200    1.0000    1.0000 C   0  0  0  0  0  0  0  0  0  0  0  0
    3.0100    1.0000   -0.3859 N   0  0  0  0  0  0  0  0  0  0  0  0
    3.7976    2.0275   -0.8340 C   0  0  0  0  0  0  0  0  0  0  0  0
    4.0875    2.9275   -0.0951 O   0  0  0  0  0  0  0  0  0  0  0  0
    4.3043    2.0275   -2.2671 C   0  0  0  0  0  0  0  0  0  0  0  0
    3.0267   -0.2411    1.7165 C   0  0  0  0  0  0  0  0  0  0  0  0
    4.5467   -0.2411    1.7165 C   0  0  0  0  0  0  0  0  0  0  0  0
    5.2311    0.3644    2.7653 C   0  0  0  0  0  0  0  0  0  0  0  0
    6.6219    0.3662    2.7699 C   0  0  0  0  0  0  0  0  0  0  0  0
    7.3116   -0.2391    1.7241 C   0  0  0  0  0  0  0  0  0  0  0  0
    8.6614   -0.2393    1.7244 O   0  0  0  0  0  0  0  0  0  0  0  0
    6.6320   -0.8457    0.6727 C   0  0  0  0  0  0  0  0  0  0  0  0
    5.2412   -0.8449    0.6734 C   0  0  0  0  0  0  0  0  0  0  0  0
   -1.8030    2.2731    2.1865 C   0  0  0  0  0  0  0  0  0  0  0  0
   -3.1230   -0.1865    2.1865 N   0  0  0  0  0  0  0  0  0  0  0  0
  1  2  2  0
  2  3  1  0
  3  4  1  0
  4  5  1  0
  5  6  2  0
  5  7  1  0
  7  8  1  0
  8  9  1  0
  9 10  2  0
  9 11  1  0
  7 12  1  0
 12 13  1  0
 13 14  2  0
 14 15  1  0
 15 16  2  0
 16 17  1  0
 16 18  1  0
 18 19  2  0
 19 13  1  0
  3 20  1  0
  2 21  1  0
M  END
$$$$
s_22____6361186____17513450
     RDKit          3D

 21 21  0  0  0  0  0  0  0  0999 V2000
    0.4000    1.0000   -0.0392 O   0  0  0  0  0  0  0  0  0  0  0  0
    1.0000    1.0000    1.0000 C   0  0  0  0  0  0  0  0  0  0  0  0
    0.3150    1.0000    2.1865 N   0  0  0  0  0  0  0  0  0  0  0  0
   -1.1550    1.0000    2.1865 C   0  0  0  0  0  0  0  0  0  0  0  0
   -1.6617    1.0000    3.6195 C   0  0  0  0  0  0  0  0  0  0  0  0
   -1.1883    2.1594    4.2889 O   0  0  0  0  0  0  0  0  0  0  0  0
   -3.1817    1.0000    3.6195 C   0  0  0  0  0  0  0  0  0  0  0  0
   -1.1550   -0.2411    4.3361 C   0  0  0  0  0  0  0  0  0  0  0  0
    2.5200    1.0000    1.0000 C   0  0  0  0  0  0  0  0  0  0  0  0
    3.0100    1.0000   -0.3859 N   0  0  0  0  0  0  0  0  0  0  0  0
    3.7976    2.0275   -0.8340 C   0  0  0  0  0  0  0  0  0  0  0  0
    4.0875    2.9275   -0.0951 O   0  0  0  0  0  0  0  0  0  0  0  0
    4.3043    2.0275   -2.2671 C   0  0  0  0  0  0  0  0  0  0  0  0
    3.0267   -0.2411    1.7165 C   0  0  0  0  0  0  0  0  0  0  0  0
    4.5467   -0.2411    1.7165 C   0  0  0  0  0  0  0  0  0  0  0  0
    5.2311    0.3644    2.7653 C   0  0  0  0  0  0  0  0  0  0  0  0
    6.6219    0.3662    2.7699 C   0  0  0  0  0  0  0  0  0  0  0  0
    7.3116   -0.2391    1.7241 C   0  0  0  0  0  0  0  0  0  0  0  0
    8.6614   -0.2393    1.7244 O   0  0  0  0  0  0  0  0  0  0  0  0
    6.6320   -0.8457    0.6727 C   0  0  0  0  0  0  0  0  0  0  0  0
    5.2412   -0.8449    0.6734 C   0  0  0  0  0  0  0  0  0  0  0  0
  1  2  2  0
  2  3  1  0
  3  4  1  0
  4  5  1  0
  5  6  1  0
  5  7  1  0
  5  8  1  0
  2  9  1  0
  9 10  1  0
 10 11  1  0
 11 12  2  0
 11 13  1  0
  9 14  1  0
 14 15  1  0
 15 16  2  0
 16 17  1  0
 17 18  2  0
 18 19  1  0
 18 20  1  0
 20 21  2  0
 21 15  1  0
M  END
$$$$
s_2430a____11944322____8643028
     RDKit          3D

 22 22  0  0  0  0  0  0  0  0999 V2000
    6.3617   -1.6195    1.0000 F   0  0  0  0  0  0  0  0  0  0  0  0
    5.0317   -1.6195    1.0000 C   0  0  0  0  0  0  0  0  0  0  0  0
    4.5883   -2.2465    2.0859 F   0  0  0  0  0  0  0  0  0  0  0  0
    4.5883   -2.2465   -0.0859 F   0  0  0  0  0  0  0  0  0  0  0  0
    4.5250   -0.1865    1.0000 C   0  0  0  0  0  0  0  0  0  0  0  0
    3.0550   -0.1865    1.0000 N   0  0  0  0  0  0  0  0  0  0  0  0
    2.3700    1.0000    1.0000 C   0  0  0  0  0  0  0  0  0  0  0  0
    2.9700    2.0392    1.0000 O   0  0  0  0  0  0  0  0  0  0  0  0
    1.0000    1.0000    1.0000 N   0  0  0  0  0  0  0  0  0  0  0  0
    0.2650    2.2731    1.0000 C   0  0  0  0  0  0  0  0  0  0  0  0
   -0.6089    2.3536    2.2411 C   0  0  0  0  0  0  0  0  0  0  0  0
   -1.5316    1.2743    2.2411 O   0  0  0  0  0  0  0  0  0  0  0  0
   -0.6089    2.3536   -0.2411 C   0  0  0  0  0  0  0  0  0  0  0  0
    0.2650    2.2731   -1.4822 C   0  0  0  0  0  0  0  0  0  0  0  0
    0.7696    3.4427   -2.0410 C   0  0  0  0  0  0  0  0  0  0  0  0
    1.5703    3.3738   -3.1761 C   0  0  0  0  0  0  0  0  0  0  0  0
    1.8569    2.1339   -3.7385 C   0  0  0  0  0  0  0  0  0  0  0  0
    2.6333    2.0625   -4.8404 O   0  0  0  0  0  0  0  0  0  0  0  0
    1.3546    0.9612   -3.1838 C   0  0  0  0  0  0  0  0  0  0  0  0
    0.5548    1.0359   -2.0485 C   0  0  0  0  0  0  0  0  0  0  0  0
    5.0317    0.5301   -0.2411 C   0  0  0  0  0  0  0  0  0  0  0  0
    5.0317    0.5301    2.2411 C   0  0  0  0  0  0  0  0  0  0  0  0
  1  2  1  0
  2  3  1  0
  2  4  1  0
  2  5  1  0
  5  6  1  0
  6  7  1  0
  7  8  2  0
  7  9  1  0
  9 10  1  0
 10 11  1  0
 11 12  1  0
 10 13  1  0
 13 14  1  0
 14 15  2  0
 15 16  1  0
 16 17  2  0
 17 18  1  0
 17 19  1  0
 19 20  2  0
 20 14  1  0
  5 21  1  0
  5 22  1  0
M  END
$$$$
s_2430a____13259370____14594114
     RDKit          3D

 25 25  0  0  0  0  0  0  0  0999 V2000
   -1.2183    4.2465    2.0859 F   0  0  0  0  0  0  0  0  0  0  0  0
   -1.6617    3.6195    1.0000 C   0  0  0  0  0  0  0  0  0  0  0  0
   -1.2183    4.2465   -0.0859 F   0  0  0  0  0  0  0  0  0  0  0  0
   -2.9917    3.6195    1.0000 F   0  0  0  0  0  0  0  0  0  0  0  0
   -1.1550    2.1865    1.0000 C   0  0  0  0  0  0  0  0  0  0  0  0
    0.3150    2.1865    1.0000 N   0  0  0  0  0  0  0  0  0  0  0  0
    1.0000    1.0000    1.0000 C   0  0  0  0  0  0  0  0  0  0  0  0
    0.4000   -0.0392    1.0000 O   0  0  0  0  0  0  0  0  0  0  0  0
    2.3700    1.0000    1.0000 N   0  0  0  0  0  0  0  0  0  0  0  0
    3.1050   -0.2731    1.0000 C   0  0  0  0  0  0  0  0  0  0  0  0
    3.9789   -0.3536   -0.2411 C   0  0  0  0  0  0  0  0  0  0  0  0
    3.9839    0.5498   -1.0310 O   0  0  0  0  0  0  0  0  0  0  0  0
    4.7607   -1.4575   -0.4579 N   0  0  0  0  0  0  0  0  0  0  0  0
    5.6059   -1.5353   -1.6581 C   0  0  0  0  0  0  0  0  0  0  0  0
    4.7546   -2.5641    0.5098 C   0  0  0  0  0  0  0  0  0  0  0  0
    3.9789   -0.3536    2.2411 C   0  0  0  0  0  0  0  0  0  0  0  0
    3.1048   -0.2730    3.4824 C   0  0  0  0  0  0  0  0  0  0  0  0
    2.8195    0.9667    4.0450 C   0  0  0  0  0  0  0  0  0  0  0  0
    2.0201    1.0359    5.1813 C   0  0  0  0  0  0  0  0  0  0  0  0
    1.5113   -0.1292    5.7457 C   0  0  0  0  0  0  0  0  0  0  0  0
    1.8025   -1.3620    5.1749 C   0  0  0  0  0  0  0  0  0  0  0  0
    2.6012   -1.4445    4.0390 C   0  0  0  0  0  0  0  0  0  0  0  0
   -1.6617    1.4699   -0.2411 C   0  0  0  0  0  0  0  0  0  0  0  0
   -3.1817    1.4699   -0.2411 C   0  0  0  0  0  0  0  0  0  0  0  0
   -1.6617    1.4699    2.2411 C   0  0  0  0  0  0  0  0  0  0  0  0
  1  2  1  0
  2  3  1  0
  2  4  1  0
  2  5  1  0
  5  6  1  0
  6  7  1  0
  7  8  2  0
  7  9  1  0
  9 10  1  0
 10 11  1  0
 11 12  2  0
 11 13  1  0
 13 14  1  0
 13 15  1  0
 10 16  1  0
 16 17  1  0
 17 18  2  0
 18 19  1  0
 19 20  2  0
 20 21  1  0
 21 22  2  0
 22 17  1  0
  5 23  1  0
 23 24  1  0
  5 25  1  0
M  END
$$$$
s_240690a____9049120____7408866
     RDKit          3D

 22 22  0  0  0  0  0  0  0  0999 V2000
    1.6027   -2.9469   -4.5862 Br  0  0  0  0  0  0  0  0  0  0  0  0
    2.0508   -1.5747   -3.2604 C   0  0  0  0  0  0  0  0  0  0  0  0
    2.8137   -1.9145   -2.1479 C   0  0  0  0  0  0  0  0  0  0  0  0
    3.1286   -0.9363   -1.2104 C   0  0  0  0  0  0  0  0  0  0  0  0
    2.6785    0.3669   -1.3947 C   0  0  0  0  0  0  0  0  0  0  0  0
    1.9159    0.6999   -2.5098 C   0  0  0  0  0  0  0  0  0  0  0  0
    1.5971   -0.2732   -3.4514 C   0  0  0  0  0  0  0  0  0  0  0  0
    3.0267    1.4309   -0.3667 C   0  0  0  0  0  0  0  0  0  0  0  0
    4.4855    1.6046   -0.3161 N   0  0  0  0  0  0  0  0  0  0  0  0
    5.0404    2.8242   -0.6018 C   0  0  0  0  0  0  0  0  0  0  0  0
    4.3356    3.7506   -0.8934 O   0  0  0  0  0  0  0  0  0  0  0  0
    6.5489    3.0038   -0.5495 C   0  0  0  0  0  0  0  0  0  0  0  0
    2.5200    1.0000    1.0000 C   0  0  0  0  0  0  0  0  0  0  0  0
    1.0000    1.0000    1.0000 C   0  0  0  0  0  0  0  0  0  0  0  0
    0.4000    1.0000   -0.0392 O   0  0  0  0  0  0  0  0  0  0  0  0
    0.3150    1.0000    2.1865 N   0  0  0  0  0  0  0  0  0  0  0  0
   -1.1550    1.0000    2.1865 C   0  0  0  0  0  0  0  0  0  0  0  0
   -1.6617    1.0000    3.6195 C   0  0  0  0  0  0  0  0  0  0  0  0
   -1.2183   -0.0859    4.2465 F   0  0  0  0  0  0  0  0  0  0  0  0
   -1.2183    2.0859    4.2465 F   0  0  0  0  0  0  0  0  0  0  0  0
   -3.1817    1.0000    3.6195 C   0  0  0  0  0  0  0  0  0  0  0  0
   -3.6717    1.0000    5.0055 N   0  0  0  0  0  0  0  0  0  0  0  0
  1  2  1  0
  2  3  2  0
  3  4  1  0
  4  5  2  0
  5  6  1  0
  6  7  2  0
  7  2  1  0
  5  8  1  0
  8  9  1  0
  9 10  1  0
 10 11  2  0
 10 12  1  0
  8 13  1  0
 13 14  1  0
 14 15  2  0
 14 16  1  0
 16 17  1  0
 17 18  1  0
 18 19  1  0
 18 20  1  0
 18 21  1  0
 21 22  1  0
M  CHG  1  22   1
M  END
$$$$
s_22____10545716____16887748
     RDKit          3D

 25 25  0  0  0  0  0  0  0  0999 V2000
    2.7748   -3.1228    0.4261 F   0  0  0  0  0  0  0  0  0  0  0  0
    2.3314   -3.1228   -0.8278 C   0  0  0  0  0  0  0  0  0  0  0  0
    1.0014   -3.1228   -0.8278 F   0  0  0  0  0  0  0  0  0  0  0  0
    2.8381   -1.8817   -1.5444 C   0  0  0  0  0  0  0  0  0  0  0  0
    2.3481   -0.6814   -0.8514 N   0  0  0  0  0  0  0  0  0  0  0  0
    2.9767   -0.2411    0.2835 C   0  0  0  0  0  0  0  0  0  0  0  0
    3.9272   -0.8352    0.7118 O   0  0  0  0  0  0  0  0  0  0  0  0
    2.4700    1.0000    1.0000 C   0  0  0  0  0  0  0  0  0  0  0  0
    1.0000    1.0000    1.0000 N   0  0  0  0  0  0  0  0  0  0  0  0
    0.3150    1.0000    2.1865 C   0  0  0  0  0  0  0  0  0  0  0  0
    0.9150    1.0000    3.2257 O   0  0  0  0  0  0  0  0  0  0  0  0
   -1.2050    1.0000    2.1865 C   0  0  0  0  0  0  0  0  0  0  0  0
   -1.6783    1.0000    3.5252 O   0  0  0  0  0  0  0  0  0  0  0  0
   -3.0983    1.0000    3.5252 C   0  0  0  0  0  0  0  0  0  0  0  0
   -3.6050    1.0000    4.9583 C   0  0  0  0  0  0  0  0  0  0  0  0
   -3.6050    2.2411    2.8087 C   0  0  0  0  0  0  0  0  0  0  0  0
    2.9767    2.2411    0.2835 C   0  0  0  0  0  0  0  0  0  0  0  0
    2.4700    3.4822    1.0000 C   0  0  0  0  0  0  0  0  0  0  0  0
    3.2306    4.0410    2.0218 C   0  0  0  0  0  0  0  0  0  0  0  0
    2.7714    5.1770    2.6798 C   0  0  0  0  0  0  0  0  0  0  0  0
    1.5555    5.7409    2.3064 C   0  0  0  0  0  0  0  0  0  0  0  0
    1.1058    6.8432    2.9425 O   0  0  0  0  0  0  0  0  0  0  0  0
    0.7907    5.1858    1.2854 C   0  0  0  0  0  0  0  0  0  0  0  0
    1.2550    4.0500    0.6306 C   0  0  0  0  0  0  0  0  0  0  0  0
    2.8381   -4.3638   -1.5444 C   0  0  0  0  0  0  0  0  0  0  0  0
  1  2  1  0
  2  3  1  0
  2  4  1  0
  4  5  1  0
  5  6  1  0
  6  7  2  0
  6  8  1  0
  8  9  1  0
  9 10  1  0
 10 11  2  0
 10 12  1  0
 12 13  1  0
 13 14  1  0
 14 15  1  0
 14 16  1  0
  8 17  1  0
 17 18  1  0
 18 19  2  0
 19 20  1  0
 20 21  2  0
 21 22  1  0
 21 23  1  0
 23 24  2  0
 24 18  1  0
  2 25  1  0
M  END
$$$$
s_22____17070220____17513450
     RDKit          3D

 23 25  0  0  0  0  0  0  0  0999 V2000
    1.3936    5.4379    1.9597 F   0  0  0  0  0  0  0  0  0  0  0  0
    2.1079    5.1859    3.0529 C   0  0  0  0  0  0  0  0  0  0  0  0
    3.2188    5.8776    3.2718 F   0  0  0  0  0  0  0  0  0  0  0  0
    1.3524    4.7136    4.2519 C   0  0  0  0  0  0  0  0  0  0  0  0
    2.1672    3.7440    3.4526 C   0  0  0  0  0  0  0  0  0  0  0  0
    1.3190    2.8957    2.6044 N   0  0  0  0  0  0  0  0  0  0  0  0
    1.8776    1.8776    1.8776 C   0  0  0  0  0  0  0  0  0  0  0  0
    3.0596    1.6786    1.9338 O   0  0  0  0  0  0  0  0  0  0  0  0
    1.0000    1.0000    1.0000 C   0  0  0  0  0  0  0  0  0  0  0  0
   -0.2629    0.7171    1.6971 N   0  0  0  0  0  0  0  0  0  0  0  0
   -0.6150   -0.5766    1.9787 C   0  0  0  0  0  0  0  0  0  0  0  0
    0.1075   -1.4788    1.6563 O   0  0  0  0  0  0  0  0  0  0  0  0
   -1.9209   -0.8691    2.6995 C   0  0  0  0  0  0  0  0  0  0  0  0
    0.7075    1.7208   -0.3059 C   0  0  0  0  0  0  0  0  0  0  0  0
   -0.1701    0.8432   -1.1835 C   0  0  0  0  0  0  0  0  0  0  0  0
   -1.5540    0.9425   -1.0842 C   0  0  0  0  0  0  0  0  0  0  0  0
   -2.3610    0.1420   -1.8857 C   0  0  0  0  0  0  0  0  0  0  0  0
   -1.7726   -0.7486   -2.7781 C   0  0  0  0  0  0  0  0  0  0  0  0
   -2.5520   -1.5276   -3.5577 O   0  0  0  0  0  0  0  0  0  0  0  0
   -0.3891   -0.8520   -2.8811 C   0  0  0  0  0  0  0  0  0  0  0  0
    0.4131   -0.0489   -2.0774 C   0  0  0  0  0  0  0  0  0  0  0  0
    0.0208    4.8607    4.9299 C   0  0  0  0  0  0  0  0  0  0  0  0
    1.2904    5.0486    5.7138 C   0  0  0  0  0  0  0  0  0  0  0  0
  1  2  1  0
  2  3  1  0
  2  4  1  0
  4  5  1  0
  5  2  1  0
  5  6  1  0
  6  7  1  0
  7  8  2  0
  7  9  1  0
  9 10  1  0
 10 11  1  0
 11 12  2  0
 11 13  1  0
  9 14  1  0
 14 15  1  0
 15 16  2  0
 16 17  1  0
 17 18  2  0
 18 19  1  0
 18 20  1  0
 20 21  2  0
 21 15  1  0
  4 22  1  0
 22 23  1  0
 23  4  1  0
M  END
$$$$
s_22____6287650____5637262
     RDKit          3D

 23 23  0  0  0  0  0  0  0  0999 V2000
    2.0549    1.5493   -3.0060 F   0  0  0  0  0  0  0  0  0  0  0  0
    2.5229    0.3718   -2.6020 C   0  0  0  0  0  0  0  0  0  0  0  0
    3.0192    0.2379   -1.3093 C   0  0  0  0  0  0  0  0  0  0  0  0
    3.5133   -0.9839   -0.8650 C   0  0  0  0  0  0  0  0  0  0  0  0
    3.5058   -2.0746   -1.7292 C   0  0  0  0  0  0  0  0  0  0  0  0
    3.0084   -1.9349   -3.0205 C   0  0  0  0  0  0  0  0  0  0  0  0
    3.0022   -2.9777   -3.8448 F   0  0  0  0  0  0  0  0  0  0  0  0
    2.5139   -0.7153   -3.4694 C   0  0  0  0  0  0  0  0  0  0  0  0
    3.0267    1.4309   -0.3667 C   0  0  0  0  0  0  0  0  0  0  0  0
    4.3972    1.9473   -0.2408 N   0  0  0  0  0  0  0  0  0  0  0  0
    4.6793    3.2374   -0.6054 C   0  0  0  0  0  0  0  0  0  0  0  0
    3.8076    3.9459   -1.0276 O   0  0  0  0  0  0  0  0  0  0  0  0
    6.0965    3.7714   -0.4752 C   0  0  0  0  0  0  0  0  0  0  0  0
    2.5200    1.0000    1.0000 C   0  0  0  0  0  0  0  0  0  0  0  0
    1.0000    1.0000    1.0000 C   0  0  0  0  0  0  0  0  0  0  0  0
    0.4000    1.0000   -0.0392 O   0  0  0  0  0  0  0  0  0  0  0  0
    0.3150    1.0000    2.1865 N   0  0  0  0  0  0  0  0  0  0  0  0
   -1.1550    1.0000    2.1865 C   0  0  0  0  0  0  0  0  0  0  0  0
   -1.6617   -0.4113    1.9376 C   0  0  0  0  0  0  0  0  0  0  0  0
   -3.1817   -0.4113    1.9376 C   0  0  0  0  0  0  0  0  0  0  0  0
   -3.6250   -1.6462    1.7199 F   0  0  0  0  0  0  0  0  0  0  0  0
   -3.6250    0.0176    3.1159 F   0  0  0  0  0  0  0  0  0  0  0  0
   -3.6250    0.3947    0.9770 F   0  0  0  0  0  0  0  0  0  0  0  0
  1  2  1  0
  2  3  2  0
  3  4  1  0
  4  5  2  0
  5  6  1  0
  6  7  1  0
  6  8  2  0
  8  2  1  0
  3  9  1  0
  9 10  1  0
 10 11  1  0
 11 12  2  0
 11 13  1  0
  9 14  1  0
 14 15  1  0
 15 16  2  0
 15 17  1  0
 17 18  1  0
 18 19  1  0
 19 20  1  0
 20 21  1  0
 20 22  1  0
 20 23  1  0
M  END
$$$$
s_22____13570620____17064022
     RDKit          3D

 26 26  0  0  0  0  0  0  0  0999 V2000
    2.0257    5.0585   -3.3582 F   0  0  0  0  0  0  0  0  0  0  0  0
    1.9878    4.5452   -2.1318 C   0  0  0  0  0  0  0  0  0  0  0  0
    1.2234    5.3080   -1.3554 F   0  0  0  0  0  0  0  0  0  0  0  0
    3.2196    4.4984   -1.6325 F   0  0  0  0  0  0  0  0  0  0  0  0
    1.4102    3.1404   -2.1881 C   0  0  0  0  0  0  0  0  0  0  0  0
    1.6931    2.4433   -0.9252 N   0  0  0  0  0  0  0  0  0  0  0  0
    0.7075    1.7208   -0.3059 C   0  0  0  0  0  0  0  0  0  0  0  0
   -0.3868    1.6571   -0.7943 O   0  0  0  0  0  0  0  0  0  0  0  0
    1.0000    1.0000    1.0000 C   0  0  0  0  0  0  0  0  0  0  0  0
    1.8487    1.8487    1.8487 N   0  0  0  0  0  0  0  0  0  0  0  0
    3.0831    1.4052    2.2442 C   0  0  0  0  0  0  0  0  0  0  0  0
    3.4716    0.3240    1.8978 O   0  0  0  0  0  0  0  0  0  0  0  0
    3.9607    2.2828    3.1218 C   0  0  0  0  0  0  0  0  0  0  0  0
    3.2399    2.5753    4.4276 C   0  0  0  0  0  0  0  0  0  0  0  0
    4.1175    3.4529    5.3052 C   0  0  0  0  0  0  0  0  0  0  0  0
    5.2666    1.5620    3.4143 C   0  0  0  0  0  0  0  0  0  0  0  0
   -0.3059    0.7075    1.7208 C   0  0  0  0  0  0  0  0  0  0  0  0
   -0.0133   -0.0134    3.0267 C   0  0  0  0  0  0  0  0  0  0  0  0
    0.1949    0.7274    4.1855 C   0  0  0  0  0  0  0  0  0  0  0  0
    0.4621    0.0721    5.3829 C   0  0  0  0  0  0  0  0  0  0  0  0
    0.5173   -1.3180    5.4060 C   0  0  0  0  0  0  0  0  0  0  0  0
    0.7767   -1.9580    6.5658 O   0  0  0  0  0  0  0  0  0  0  0  0
    0.3102   -2.0634    4.2499 C   0  0  0  0  0  0  0  0  0  0  0  0
    0.0429   -1.4030    3.0554 C   0  0  0  0  0  0  0  0  0  0  0  0
    2.0435    2.3780   -3.3405 C   0  0  0  0  0  0  0  0  0  0  0  0
    3.3226    1.9027   -2.9476 O   0  0  0  0  0  0  0  0  0  0  0  0
  1  2  1  0
  2  3  1  0
  2  4  1  0
  2  5  1  0
  5  6  1  0
  6  7  1  0
  7  8  2  0
  7  9  1  0
  9 10  1  0
 10 11  1  0
 11 12  2  0
 11 13  1  0
 13 14  1  0
 14 15  1  0
 13 16  1  0
  9 17  1  0
 17 18  1  0
 18 19  2  0
 19 20  1  0
 20 21  2  0
 21 22  1  0
 21 23  1  0
 23 24  2  0
 24 18  1  0
  5 25  1  0
 25 26  1  0
M  END
$$$$
s_22____9705674____107332
     RDKit          3D

 23 24  0  0  0  0  0  0  0  0999 V2000
   -2.7942    6.5503    0.7877 Cl  0  0  0  0  0  0  0  0  0  0  0  0
   -1.7679    5.1320    0.4668 C   0  0  0  0  0  0  0  0  0  0  0  0
   -2.2011    3.8654    0.8430 C   0  0  0  0  0  0  0  0  0  0  0  0
   -1.4017    2.7542    0.5947 C   0  0  0  0  0  0  0  0  0  0  0  0
   -0.1722    2.9289   -0.0315 C   0  0  0  0  0  0  0  0  0  0  0  0
    0.2615    4.1952   -0.4077 C   0  0  0  0  0  0  0  0  0  0  0  0
   -0.5380    5.3067   -0.1593 C   0  0  0  0  0  0  0  0  0  0  0  0
    0.7075    1.7208   -0.3059 C   0  0  0  0  0  0  0  0  0  0  0  0
    0.0129    0.8075   -1.2248 N   0  0  0  0  0  0  0  0  0  0  0  0
    0.5721    0.4993   -2.4369 C   0  0  0  0  0  0  0  0  0  0  0  0
    1.6288    0.9750   -2.7485 O   0  0  0  0  0  0  0  0  0  0  0  0
   -0.1461   -0.4450   -3.3871 C   0  0  0  0  0  0  0  0  0  0  0  0
    1.0000    1.0000    1.0000 C   0  0  0  0  0  0  0  0  0  0  0  0
    1.8776    1.8776    1.8776 C   0  0  0  0  0  0  0  0  0  0  0  0
    1.9688    3.0524    1.6507 O   0  0  0  0  0  0  0  0  0  0  0  0
    2.5644    1.3273    2.9275 N   0  0  0  0  0  0  0  0  0  0  0  0
    3.4131    2.1760    3.7762 C   0  0  0  0  0  0  0  0  0  0  0  0
    4.0574    1.3262    4.8593 C   0  0  0  0  0  0  0  0  0  0  0  0
    3.1098    0.7623    5.6029 F   0  0  0  0  0  0  0  0  0  0  0  0
    4.8011    0.3785    4.2954 F   0  0  0  0  0  0  0  0  0  0  0  0
    4.9354    2.2041    5.7372 C   0  0  0  0  0  0  0  0  0  0  0  0
    4.1286    3.2874    6.3915 C   0  0  0  0  0  0  0  0  0  0  0  0
    5.0239    3.6151    5.2311 C   0  0  0  0  0  0  0  0  0  0  0  0
  1  2  1  0
  2  3  2  0
  3  4  1  0
  4  5  2  0
  5  6  1  0
  6  7  2  0
  7  2  1  0
  5  8  1  0
  8  9  1  0
  9 10  1  0
 10 11  2  0
 10 12  1  0
  8 13  1  0
 13 14  1  0
 14 15  2  0
 14 16  1  0
 16 17  1  0
 17 18  1  0
 18 19  1  0
 18 20  1  0
 18 21  1  0
 21 22  1  0
 22 23  1  0
 23 21  1  0
M  END
$$$$
s_22____9283038____107332
     RDKit          3D

 23 23  0  0  0  0  0  0  0  0999 V2000
    1.6287   -2.8076   -4.4731 Cl  0  0  0  0  0  0  0  0  0  0  0  0
    2.0403   -1.5646   -3.2675 C   0  0  0  0  0  0  0  0  0  0  0  0
    2.8044   -1.9046   -2.1567 C   0  0  0  0  0  0  0  0  0  0  0  0
    3.1278   -0.9363   -1.2116 C   0  0  0  0  0  0  0  0  0  0  0  0
    2.6787    0.3673   -1.3944 C   0  0  0  0  0  0  0  0  0  0  0  0
    1.9143    0.7077   -2.5049 C   0  0  0  0  0  0  0  0  0  0  0  0
    1.5908   -0.2609   -3.4501 C   0  0  0  0  0  0  0  0  0  0  0  0
    3.0267    1.4309   -0.3667 C   0  0  0  0  0  0  0  0  0  0  0  0
    4.4855    1.6046   -0.3161 N   0  0  0  0  0  0  0  0  0  0  0  0
    5.0404    2.8242   -0.6018 C   0  0  0  0  0  0  0  0  0  0  0  0
    4.3356    3.7506   -0.8934 O   0  0  0  0  0  0  0  0  0  0  0  0
    6.5489    3.0038   -0.5495 C   0  0  0  0  0  0  0  0  0  0  0  0
    2.5200    1.0000    1.0000 C   0  0  0  0  0  0  0  0  0  0  0  0
    1.0000    1.0000    1.0000 C   0  0  0  0  0  0  0  0  0  0  0  0
    0.4000    1.0000   -0.0392 O   0  0  0  0  0  0  0  0  0  0  0  0
    0.3150    1.0000    2.1865 N   0  0  0  0  0  0  0  0  0  0  0  0
   -1.1550    1.0000    2.1865 C   0  0  0  0  0  0  0  0  0  0  0  0
   -1.6617    1.0000    3.6195 C   0  0  0  0  0  0  0  0  0  0  0  0
   -1.2183   -0.0859    4.2465 F   0  0  0  0  0  0  0  0  0  0  0  0
   -1.2183    2.0859    4.2465 F   0  0  0  0  0  0  0  0  0  0  0  0
   -3.1817    1.0000    3.6195 C   0  0  0  0  0  0  0  0  0  0  0  0
   -3.6250    1.0000    4.8735 F   0  0  0  0  0  0  0  0  0  0  0  0
   -3.6250    2.0859    2.9926 F   0  0  0  0  0  0  0  0  0  0  0  0
  1  2  1  0
  2  3  2  0
  3  4  1  0
  4  5  2  0
  5  6  1  0
  6  7  2  0
  7  2  1  0
  5  8  1  0
  8  9  1  0
  9 10  1  0
 10 11  2  0
 10 12  1  0
  8 13  1  0
 13 14  1  0
 14 15  2  0
 14 16  1  0
 16 17  1  0
 17 18  1  0
 18 19  1  0
 18 20  1  0
 18 21  1  0
 21 22  1  0
 21 23  1  0
M  END
$$$$
s_188690b____15429296____5367140
     RDKit          3D

 23 23  0  0  0  0  0  0  0  0999 V2000
    1.6287   -2.8076   -4.4731 Cl  0  0  0  0  0  0  0  0  0  0  0  0
    2.0403   -1.5646   -3.2675 C   0  0  0  0  0  0  0  0  0  0  0  0
    2.8044   -1.9046   -2.1567 C   0  0  0  0  0  0  0  0  0  0  0  0
    3.1278   -0.9363   -1.2116 C   0  0  0  0  0  0  0  0  0  0  0  0
    2.6787    0.3673   -1.3944 C   0  0  0  0  0  0  0  0  0  0  0  0
    1.9143    0.7077   -2.5049 C   0  0  0  0  0  0  0  0  0  0  0  0
    1.5908   -0.2609   -3.4501 C   0  0  0  0  0  0  0  0  0  0  0  0
    3.0267    1.4309   -0.3667 C   0  0  0  0  0  0  0  0  0  0  0  0
    4.4855    1.6046   -0.3161 N   0  0  0  0  0  0  0  0  0  0  0  0
    5.0404    2.8242   -0.6018 C   0  0  0  0  0  0  0  0  0  0  0  0
    4.3356    3.7506   -0.8934 O   0  0  0  0  0  0  0  0  0  0  0  0
    6.5489    3.0038   -0.5495 C   0  0  0  0  0  0  0  0  0  0  0  0
    2.5200    1.0000    1.0000 C   0  0  0  0  0  0  0  0  0  0  0  0
    1.0000    1.0000    1.0000 C   0  0  0  0  0  0  0  0  0  0  0  0
    0.4000    1.0000   -0.0392 O   0  0  0  0  0  0  0  0  0  0  0  0
    0.3150    1.0000    2.1865 N   0  0  0  0  0  0  0  0  0  0  0  0
   -1.1550    1.0000    2.1865 C   0  0  0  0  0  0  0  0  0  0  0  0
   -1.6617    1.0000    3.6195 C   0  0  0  0  0  0  0  0  0  0  0  0
   -1.2183   -0.0859    4.2465 F   0  0  0  0  0  0  0  0  0  0  0  0
   -1.2183    2.0859    4.2465 F   0  0  0  0  0  0  0  0  0  0  0  0
   -3.1817    1.0000    3.6195 C   0  0  0  0  0  0  0  0  0  0  0  0
   -3.7867    0.0925    3.0956 O   0  0  0  0  0  0  0  0  0  0  0  0
   -3.8067    1.9375    4.1608 O   0  0  0  0  0  0  0  0  0  0  0  0
  1  2  1  0
  2  3  2  0
  3  4  1  0
  4  5  2  0
  5  6  1  0
  6  7  2  0
  7  2  1  0
  5  8  1  0
  8  9  1  0
  9 10  1  0
 10 11  2  0
 10 12  1  0
  8 13  1  0
 13 14  1  0
 14 15  2  0
 14 16  1  0
 16 17  1  0
 17 18  1  0
 18 19  1  0
 18 20  1  0
 18 21  1  0
 21 22  1  0
 21 23  2  0
M  CHG  1  22  -1
M  END
$$$$
s_527a____12347510____17513452
     RDKit          3D

 23 23  0  0  0  0  0  0  0  0999 V2000
    4.3033   -2.3486   -1.5927 F   0  0  0  0  0  0  0  0  0  0  0  0
    4.0817   -1.9647   -0.3388 C   0  0  0  0  0  0  0  0  0  0  0  0
    5.2438   -1.8057    0.2882 F   0  0  0  0  0  0  0  0  0  0  0  0
    3.3629   -2.8916    0.2882 F   0  0  0  0  0  0  0  0  0  0  0  0
    3.3217   -0.6483   -0.3388 C   0  0  0  0  0  0  0  0  0  0  0  0
    3.0850   -0.2384    1.0000 O   0  0  0  0  0  0  0  0  0  0  0  0
    2.3700    1.0000    1.0000 N   0  0  0  0  0  0  0  0  0  0  0  0
    1.0000    1.0000    1.0000 C   0  0  0  0  0  0  0  0  0  0  0  0
    0.4000   -0.0392    1.0000 O   0  0  0  0  0  0  0  0  0  0  0  0
    0.2400    2.3164    1.0000 C   0  0  0  0  0  0  0  0  0  0  0  0
   -1.0444    2.1406    1.6930 N   0  0  0  0  0  0  0  0  0  0  0  0
   -1.1292    2.3553    3.0434 C   0  0  0  0  0  0  0  0  0  0  0  0
   -0.1550    2.6868    3.6605 O   0  0  0  0  0  0  0  0  0  0  0  0
   -2.4574    2.1735    3.7599 C   0  0  0  0  0  0  0  0  0  0  0  0
   -0.0133    2.7551   -0.4331 C   0  0  0  0  0  0  0  0  0  0  0  0
   -0.7734    4.0715   -0.4331 C   0  0  0  0  0  0  0  0  0  0  0  0
   -0.0668    5.2697   -0.4331 C   0  0  0  0  0  0  0  0  0  0  0  0
   -0.7580    6.4767   -0.4338 C   0  0  0  0  0  0  0  0  0  0  0  0
   -2.1493    6.4698   -0.4351 C   0  0  0  0  0  0  0  0  0  0  0  0
   -2.8591    7.6996   -0.4355 O   0  0  0  0  0  0  0  0  0  0  0  0
   -2.8607    5.2743   -0.4347 C   0  0  0  0  0  0  0  0  0  0  0  0
   -2.1644    4.0703   -0.4344 C   0  0  0  0  0  0  0  0  0  0  0  0
    3.1050    2.2731    1.0000 C   0  0  0  0  0  0  0  0  0  0  0  0
  1  2  1  0
  2  3  1  0
  2  4  1  0
  2  5  1  0
  5  6  1  0
  6  7  1  0
  7  8  1  0
  8  9  2  0
  8 10  1  0
 10 11  1  0
 11 12  1  0
 12 13  2  0
 12 14  1  0
 10 15  1  0
 15 16  1  0
 16 17  2  0
 17 18  1  0
 18 19  2  0
 19 20  1  0
 19 21  1  0
 21 22  2  0
 22 16  1  0
  7 23  1  0
M  END
$$$$
s_22____9750152____17513450
     RDKit          3D

 22 22  0  0  0  0  0  0  0  0999 V2000
    0.4000    1.0000   -0.0392 O   0  0  0  0  0  0  0  0  0  0  0  0
    1.0000    1.0000    1.0000 C   0  0  0  0  0  0  0  0  0  0  0  0
    0.3150    1.0000    2.1865 N   0  0  0  0  0  0  0  0  0  0  0  0
   -1.1550    1.0000    2.1865 C   0  0  0  0  0  0  0  0  0  0  0  0
   -1.6617   -0.4331    2.1865 C   0  0  0  0  0  0  0  0  0  0  0  0
   -2.0417   -1.5079    2.1865 N   0  0  0  0  0  0  0  0  0  0  0  0
    1.0500    1.0000    3.4595 C   0  0  0  0  0  0  0  0  0  0  0  0
    1.3033    2.4331    3.8983 C   0  0  0  0  0  0  0  0  0  0  0  0
    1.5017    3.5550    4.2418 C   0  0  0  0  0  0  0  0  0  0  0  0
    2.5200    1.0000    1.0000 C   0  0  0  0  0  0  0  0  0  0  0  0
    3.0100    1.6930   -0.2002 N   0  0  0  0  0  0  0  0  0  0  0  0
    3.2383    3.0434   -0.1663 C   0  0  0  0  0  0  0  0  0  0  0  0
    3.0383    3.6605    0.8432 O   0  0  0  0  0  0  0  0  0  0  0  0
    3.7450    3.7599   -1.4074 C   0  0  0  0  0  0  0  0  0  0  0  0
    3.0267   -0.4331    1.0000 C   0  0  0  0  0  0  0  0  0  0  0  0
    4.5467   -0.4331    1.0000 C   0  0  0  0  0  0  0  0  0  0  0  0
    5.2311   -0.4331    2.2110 C   0  0  0  0  0  0  0  0  0  0  0  0
    6.6219   -0.4338    2.2159 C   0  0  0  0  0  0  0  0  0  0  0  0
    7.3116   -0.4351    1.0075 C   0  0  0  0  0  0  0  0  0  0  0  0
    8.7316   -0.4355    1.0077 O   0  0  0  0  0  0  0  0  0  0  0  0
    6.6320   -0.4347   -0.2063 C   0  0  0  0  0  0  0  0  0  0  0  0
    5.2412   -0.4344   -0.2053 C   0  0  0  0  0  0  0  0  0  0  0  0
  1  2  2  0
  2  3  1  0
  3  4  1  0
  4  5  1  0
  5  6  3  0
  3  7  1  0
  7  8  1  0
  8  9  3  0
  2 10  1  0
 10 11  1  0
 11 12  1  0
 12 13  2  0
 12 14  1  0
 10 15  1  0
 15 16  1  0
 16 17  2  0
 17 18  1  0
 18 19  2  0
 19 20  1  0
 19 21  1  0
 21 22  2  0
 22 16  1  0
M  END
$$$$
s_22____12206138____9276244
     RDKit          3D

 25 25  0  0  0  0  0  0  0  0999 V2000
    4.5433    2.3831    4.3378 F   0  0  0  0  0  0  0  0  0  0  0  0
    4.9867    2.8120    3.1595 C   0  0  0  0  0  0  0  0  0  0  0  0
    6.3167    2.8120    3.1595 F   0  0  0  0  0  0  0  0  0  0  0  0
    4.5433    4.0469    2.9417 F   0  0  0  0  0  0  0  0  0  0  0  0
    4.4800    1.8909    2.0617 C   0  0  0  0  0  0  0  0  0  0  0  0
    3.0100    1.8909    2.0617 N   0  0  0  0  0  0  0  0  0  0  0  0
    2.5200    1.0000    1.0000 C   0  0  0  0  0  0  0  0  0  0  0  0
    1.0000    1.0000    1.0000 C   0  0  0  0  0  0  0  0  0  0  0  0
    0.4000    1.0000   -0.0392 O   0  0  0  0  0  0  0  0  0  0  0  0
    0.3150    1.0000    2.1865 N   0  0  0  0  0  0  0  0  0  0  0  0
   -1.1550    1.0000    2.1865 C   0  0  0  0  0  0  0  0  0  0  0  0
   -1.6617    2.2411    2.9030 C   0  0  0  0  0  0  0  0  0  0  0  0
   -2.6122    2.1672    3.6317 O   0  0  0  0  0  0  0  0  0  0  0  0
   -1.0606    3.3914    2.7251 O   0  0  0  0  0  0  0  0  0  0  0  0
   -1.5340    4.5508    3.3945 C   0  0  0  0  0  0  0  0  0  0  0  0
   -1.6617   -0.2411    2.9030 C   0  0  0  0  0  0  0  0  0  0  0  0
   -1.1548   -1.4825    2.1862 C   0  0  0  0  0  0  0  0  0  0  0  0
   -1.9070   -2.0504    1.1626 C   0  0  0  0  0  0  0  0  0  0  0  0
   -3.0892   -1.5123    0.7936 O   0  0  0  0  0  0  0  0  0  0  0  0
   -1.4433   -3.1866    0.5068 C   0  0  0  0  0  0  0  0  0  0  0  0
   -0.2273   -3.7543    0.8744 C   0  0  0  0  0  0  0  0  0  0  0  0
    0.5248   -3.1857    1.8976 C   0  0  0  0  0  0  0  0  0  0  0  0
    0.0611   -2.0496    2.5529 C   0  0  0  0  0  0  0  0  0  0  0  0
    3.0267   -0.4113    1.2488 C   0  0  0  0  0  0  0  0  0  0  0  0
    2.5200    3.2557    1.8210 C   0  0  0  0  0  0  0  0  0  0  0  0
  1  2  1  0
  2  3  1  0
  2  4  1  0
  2  5  1  0
  5  6  1  0
  6  7  1  0
  7  8  1  0
  8  9  2  0
  8 10  1  0
 10 11  1  0
 11 12  1  0
 12 13  2  0
 12 14  1  0
 14 15  1  0
 11 16  1  0
 16 17  1  0
 17 18  2  0
 18 19  1  0
 18 20  1  0
 20 21  2  0
 21 22  1  0
 22 23  2  0
 23 17  1  0
  7 24  1  0
  6 25  1  0
M  CHG  1   6   1
M  END
$$$$
s_22____10214290____12624298
     RDKit          3D

 22 22  0  0  0  0  0  0  0  0999 V2000
    4.5183    2.2810   -3.8643 Br  0  0  0  0  0  0  0  0  0  0  0  0
    3.9141    0.9881   -2.5211 C   0  0  0  0  0  0  0  0  0  0  0  0
    3.4515    1.4403   -1.2902 C   0  0  0  0  0  0  0  0  0  0  0  0
    3.0268    0.5098   -0.3469 C   0  0  0  0  0  0  0  0  0  0  0  0
    3.0601   -0.8534   -0.6203 C   0  0  0  0  0  0  0  0  0  0  0  0
    3.5272   -1.2841   -1.8577 C   0  0  0  0  0  0  0  0  0  0  0  0
    3.9564   -0.3707   -2.8148 C   0  0  0  0  0  0  0  0  0  0  0  0
    2.5200    1.0000    1.0000 C   0  0  0  0  0  0  0  0  0  0  0  0
    3.0100    0.1091    2.0617 N   0  0  0  0  0  0  0  0  0  0  0  0
    3.7976    0.6082    3.0654 C   0  0  0  0  0  0  0  0  0  0  0  0
    4.0875    1.7726    3.0779 O   0  0  0  0  0  0  0  0  0  0  0  0
    4.3043   -0.3129    4.1632 C   0  0  0  0  0  0  0  0  0  0  0  0
    1.0000    1.0000    1.0000 C   0  0  0  0  0  0  0  0  0  0  0  0
    0.4000    1.0000   -0.0392 O   0  0  0  0  0  0  0  0  0  0  0  0
    0.3150    1.0000    2.1865 N   0  0  0  0  0  0  0  0  0  0  0  0
   -1.1550    1.0000    2.1865 C   0  0  0  0  0  0  0  0  0  0  0  0
   -1.6617    2.2411    2.9030 C   0  0  0  0  0  0  0  0  0  0  0  0
   -2.0583    3.2127    3.4640 C   0  0  0  0  0  0  0  0  0  0  0  0
   -1.6617   -0.2411    2.9030 C   0  0  0  0  0  0  0  0  0  0  0  0
   -3.1817   -0.2411    2.9030 C   0  0  0  0  0  0  0  0  0  0  0  0
   -1.1550   -1.4821    2.1865 C   0  0  0  0  0  0  0  0  0  0  0  0
   -1.1550   -0.2411    4.3361 C   0  0  0  0  0  0  0  0  0  0  0  0
  1  2  1  0
  2  3  2  0
  3  4  1  0
  4  5  2  0
  5  6  1  0
  6  7  2  0
  7  2  1  0
  4  8  1  0
  8  9  1  0
  9 10  1  0
 10 11  2  0
 10 12  1  0
  8 13  1  0
 13 14  2  0
 13 15  1  0
 15 16  1  0
 16 17  1  0
 17 18  3  0
 16 19  1  0
 19 20  1  0
 19 21  1  0
 19 22  1  0
M  END
$$$$
s_22____411428____14260948
     RDKit          3D

 25 25  0  0  0  0  0  0  0  0999 V2000
    0.4492    4.1141   -2.6949 F   0  0  0  0  0  0  0  0  0  0  0  0
   -0.0932    3.4080   -1.7074 C   0  0  0  0  0  0  0  0  0  0  0  0
    0.7114    2.6065   -0.9052 C   0  0  0  0  0  0  0  0  0  0  0  0
    0.1228    1.8772    0.1228 C   0  0  0  0  0  0  0  0  0  0  0  0
   -1.2474    1.9402    0.3557 C   0  0  0  0  0  0  0  0  0  0  0  0
   -2.0417    2.7466   -0.4530 C   0  0  0  0  0  0  0  0  0  0  0  0
   -1.4646    3.4799   -1.4853 C   0  0  0  0  0  0  0  0  0  0  0  0
    1.0000    1.0000    1.0000 C   0  0  0  0  0  0  0  0  0  0  0  0
    1.8487    0.1513    0.1513 N   0  0  0  0  0  0  0  0  0  0  0  0
    1.7598   -1.2129    0.2402 C   0  0  0  0  0  0  0  0  0  0  0  0
    0.9891   -1.7150    1.0109 O   0  0  0  0  0  0  0  0  0  0  0  0
    2.5162   -1.9693   -0.5162 O   0  0  0  0  0  0  0  0  0  0  0  0
    2.4240   -3.3833   -0.4240 C   0  0  0  0  0  0  0  0  0  0  0  0
    1.0090   -3.8221   -0.7642 C   0  0  0  0  0  0  0  0  0  0  0  0
    3.4002   -4.0193   -1.4002 C   0  0  0  0  0  0  0  0  0  0  0  0
    2.7642   -3.8221    0.9910 C   0  0  0  0  0  0  0  0  0  0  0  0
    1.8776    1.8776    1.8776 C   0  0  0  0  0  0  0  0  0  0  0  0
    1.0000    2.7551    2.7551 C   0  0  0  0  0  0  0  0  0  0  0  0
   -0.1949    2.6773    2.6773 O   0  0  0  0  0  0  0  0  0  0  0  0
    1.5733    3.6350    3.6350 N   0  0  0  0  0  0  0  0  0  0  0  0
    0.7245    4.4837    4.4837 C   0  0  0  0  0  0  0  0  0  0  0  0
    1.6021    5.3613    5.3613 C   0  0  0  0  0  0  0  0  0  0  0  0
    0.8342    6.1292    6.1292 F   0  0  0  0  0  0  0  0  0  0  0  0
    2.3700    4.5934    6.1292 F   0  0  0  0  0  0  0  0  0  0  0  0
    2.3700    6.1292    4.5934 F   0  0  0  0  0  0  0  0  0  0  0  0
  1  2  1  0
  2  3  2  0
  3  4  1  0
  4  5  2  0
  5  6  1  0
  6  7  2  0
  7  2  1  0
  4  8  1  0
  8  9  1  0
  9 10  1  0
 10 11  2  0
 10 12  1  0
 12 13  1  0
 13 14  1  0
 13 15  1  0
 13 16  1  0
  8 17  1  0
 17 18  1  0
 18 19  2  0
 18 20  1  0
 20 21  1  0
 21 22  1  0
 22 23  1  0
 22 24  1  0
 22 25  1  0
M  END
$$$$
s_276530____14277870____14278090
     RDKit          3D

 21 22  0  0  0  0  0  0  0  0999 V2000
    4.1034   -0.9618   -1.3370 F   0  0  0  0  0  0  0  0  0  0  0  0
    4.0657   -0.1656   -0.2724 C   0  0  0  0  0  0  0  0  0  0  0  0
    4.6205    1.0049   -0.5743 F   0  0  0  0  0  0  0  0  0  0  0  0
    4.7375   -0.7299    0.7272 F   0  0  0  0  0  0  0  0  0  0  0  0
    2.6210    0.0516    0.1471 C   0  0  0  0  0  0  0  0  0  0  0  0
    2.5741    0.4599    1.6108 C   0  0  0  0  0  0  0  0  0  0  0  0
    3.1800    1.7948    1.7374 N   0  0  0  0  0  0  0  0  0  0  0  0
    2.7521    2.6833    2.7324 C   0  0  0  0  0  0  0  0  0  0  0  0
    3.2844    3.7799    2.7958 O   0  0  0  0  0  0  0  0  0  0  0  0
    1.6510    2.2870    3.7049 C   0  0  0  0  0  0  0  0  0  0  0  0
    0.7125    1.3291    3.0998 N   0  0  0  0  0  0  0  0  0  0  0  0
    1.1325    0.4462    2.0963 C   0  0  0  0  0  0  0  0  0  0  0  0
    0.3145   -0.3283    1.6263 O   0  0  0  0  0  0  0  0  0  0  0  0
    0.8656    3.5231    4.1133 C   0  0  0  0  0  0  0  0  0  0  0  0
   -0.2063    3.1332    5.1187 C   0  0  0  0  0  0  0  0  0  0  0  0
    0.0787    3.1494    6.4806 C   0  0  0  0  0  0  0  0  0  0  0  0
    1.3018    3.5082    6.9262 O   0  0  0  0  0  0  0  0  0  0  0  0
   -0.9020    2.7924    7.4007 C   0  0  0  0  0  0  0  0  0  0  0  0
   -2.1678    2.4198    6.9588 C   0  0  0  0  0  0  0  0  0  0  0  0
   -2.4525    2.4043    5.5969 C   0  0  0  0  0  0  0  0  0  0  0  0
   -1.4718    2.7615    4.6772 C   0  0  0  0  0  0  0  0  0  0  0  0
  1  2  1  0
  2  3  1  0
  2  4  1  0
  2  5  1  0
  5  6  1  0
  6  7  1  0
  7  8  1  0
  8  9  2  0
  8 10  1  0
 10 11  1  0
 11 12  1  0
 12  6  1  0
 12 13  2  0
 10 14  1  0
 14 15  1  0
 15 16  2  0
 16 17  1  0
 16 18  1  0
 18 19  2  0
 19 20  1  0
 20 21  2  0
 21 15  1  0
M  END
$$$$
s_22____14174274____12525624
     RDKit          3D

 25 25  0  0  0  0  0  0  0  0999 V2000
    1.6177   -0.2226   -3.7135 F   0  0  0  0  0  0  0  0  0  0  0  0
    1.3390    0.9570   -3.1668 C   0  0  0  0  0  0  0  0  0  0  0  0
    1.8516    2.1168   -3.7402 C   0  0  0  0  0  0  0  0  0  0  0  0
    2.6268    2.0394   -4.8434 O   0  0  0  0  0  0  0  0  0  0  0  0
    1.5730    3.3622   -3.1868 C   0  0  0  0  0  0  0  0  0  0  0  0
    0.7741    3.4360   -2.0505 C   0  0  0  0  0  0  0  0  0  0  0  0
    0.2648    2.2731   -1.4818 C   0  0  0  0  0  0  0  0  0  0  0  0
    0.5397    1.0255   -2.0309 C   0  0  0  0  0  0  0  0  0  0  0  0
   -0.6089    2.3536   -0.2411 C   0  0  0  0  0  0  0  0  0  0  0  0
    0.2650    2.2731    1.0000 C   0  0  0  0  0  0  0  0  0  0  0  0
    1.0000    1.0000    1.0000 N   0  0  0  0  0  0  0  0  0  0  0  0
    2.3700    1.0000    1.0000 C   0  0  0  0  0  0  0  0  0  0  0  0
    2.9700    2.0392    1.0000 O   0  0  0  0  0  0  0  0  0  0  0  0
    3.1300   -0.3164    1.0000 C   0  0  0  0  0  0  0  0  0  0  0  0
    4.6244   -0.0386    1.0000 C   0  0  0  0  0  0  0  0  0  0  0  0
    4.9457    0.6588   -0.0859 F   0  0  0  0  0  0  0  0  0  0  0  0
    4.9457    0.6588    2.0859 F   0  0  0  0  0  0  0  0  0  0  0  0
    5.3844   -1.3550    1.0000 C   0  0  0  0  0  0  0  0  0  0  0  0
    6.6920   -1.1119    1.0000 F   0  0  0  0  0  0  0  0  0  0  0  0
    5.0631   -2.0524    2.0859 F   0  0  0  0  0  0  0  0  0  0  0  0
    5.0631   -2.0524   -0.0859 F   0  0  0  0  0  0  0  0  0  0  0  0
   -0.6089    2.3536    2.2411 C   0  0  0  0  0  0  0  0  0  0  0  0
   -1.7152    2.8125    2.1672 O   0  0  0  0  0  0  0  0  0  0  0  0
   -0.1543    1.9220    3.3914 O   0  0  0  0  0  0  0  0  0  0  0  0
   -0.9706    1.9972    4.5508 C   0  0  0  0  0  0  0  0  0  0  0  0
  1  2  1  0
  2  3  2  0
  3  4  1  0
  3  5  1  0
  5  6  2  0
  6  7  1  0
  7  8  2  0
  8  2  1  0
  7  9  1  0
  9 10  1  0
 10 11  1  0
 11 12  1  0
 12 13  2  0
 12 14  1  0
 14 15  1  0
 15 16  1  0
 15 17  1  0
 15 18  1  0
 18 19  1  0
 18 20  1  0
 18 21  1  0
 10 22  1  0
 22 23  2  0
 22 24  1  0
 24 25  1  0
M  END
$$$$
s_22____9195934____16717358
     RDKit          3D

 27 27  0  0  0  0  0  0  0  0999 V2000
    1.3895    5.2619   -3.1503 F   0  0  0  0  0  0  0  0  0  0  0  0
    1.6455    4.6312   -2.0077 C   0  0  0  0  0  0  0  0  0  0  0  0
    0.8410    5.0949   -1.0555 F   0  0  0  0  0  0  0  0  0  0  0  0
    2.9118    4.8411   -1.6594 F   0  0  0  0  0  0  0  0  0  0  0  0
    1.4102    3.1404   -2.1881 C   0  0  0  0  0  0  0  0  0  0  0  0
    1.6931    2.4433   -0.9252 N   0  0  0  0  0  0  0  0  0  0  0  0
    0.7075    1.7208   -0.3059 C   0  0  0  0  0  0  0  0  0  0  0  0
   -0.3868    1.6571   -0.7943 O   0  0  0  0  0  0  0  0  0  0  0  0
    1.0000    1.0000    1.0000 C   0  0  0  0  0  0  0  0  0  0  0  0
    1.8487    1.8487    1.8487 N   0  0  0  0  0  0  0  0  0  0  0  0
    3.0831    1.4052    2.2442 C   0  0  0  0  0  0  0  0  0  0  0  0
    3.4716    0.3240    1.8978 O   0  0  0  0  0  0  0  0  0  0  0  0
    3.9607    2.2828    3.1218 C   0  0  0  0  0  0  0  0  0  0  0  0
    5.2236    1.5857    3.4047 N   0  0  0  0  0  0  0  0  0  0  0  0
    6.2255    1.5772    2.4703 C   0  0  0  0  0  0  0  0  0  0  0  0
    6.0722    2.1388    1.4210 O   0  0  0  0  0  0  0  0  0  0  0  0
    7.5314    0.8564    2.7629 C   0  0  0  0  0  0  0  0  0  0  0  0
   -0.3059    0.7075    1.7208 C   0  0  0  0  0  0  0  0  0  0  0  0
   -0.0133   -0.0134    3.0267 C   0  0  0  0  0  0  0  0  0  0  0  0
    0.1949    0.7274    4.1855 C   0  0  0  0  0  0  0  0  0  0  0  0
    0.4621    0.0721    5.3829 C   0  0  0  0  0  0  0  0  0  0  0  0
    0.5173   -1.3180    5.4060 C   0  0  0  0  0  0  0  0  0  0  0  0
    0.7767   -1.9580    6.5658 O   0  0  0  0  0  0  0  0  0  0  0  0
    0.3102   -2.0634    4.2499 C   0  0  0  0  0  0  0  0  0  0  0  0
    0.0429   -1.4030    3.0554 C   0  0  0  0  0  0  0  0  0  0  0  0
    2.3295    2.6104   -3.2763 C   0  0  0  0  0  0  0  0  0  0  0  0
    2.0942    1.1196   -3.4568 C   0  0  0  0  0  0  0  0  0  0  0  0
  1  2  1  0
  2  3  1  0
  2  4  1  0
  2  5  1  0
  5  6  1  0
  6  7  1  0
  7  8  2  0
  7  9  1  0
  9 10  1  0
 10 11  1  0
 11 12  2  0
 11 13  1  0
 13 14  1  0
 14 15  1  0
 15 16  2  0
 15 17  1  0
  9 18  1  0
 18 19  1  0
 19 20  2  0
 20 21  1  0
 21 22  2  0
 22 23  1  0
 22 24  1  0
 24 25  2  0
 25 19  1  0
  5 26  1  0
 26 27  1  0
M  END
$$$$
s_2708____9434212____10854424
     RDKit          3D

 18 18  0  0  0  0  0  0  0  0999 V2000
   -3.2272    2.5839    5.9486 Cl  0  0  0  0  0  0  0  0  0  0  0  0
   -2.2015    2.4940    4.4969 C   0  0  0  0  0  0  0  0  0  0  0  0
   -1.5251    3.6263    4.0567 C   0  0  0  0  0  0  0  0  0  0  0  0
   -0.7228    3.5606    2.9220 C   0  0  0  0  0  0  0  0  0  0  0  0
   -0.6085    2.3535    2.2406 C   0  0  0  0  0  0  0  0  0  0  0  0
   -1.2849    1.2211    2.6802 C   0  0  0  0  0  0  0  0  0  0  0  0
   -2.0874    1.2868    3.8151 C   0  0  0  0  0  0  0  0  0  0  0  0
    0.2650    2.2731    1.0000 C   0  0  0  0  0  0  0  0  0  0  0  0
    1.0000    1.0000    1.0000 N   0  0  0  0  0  0  0  0  0  0  0  0
    2.3700    1.0000    1.0000 C   0  0  0  0  0  0  0  0  0  0  0  0
    2.9700    2.0392    1.0000 O   0  0  0  0  0  0  0  0  0  0  0  0
    3.0550   -0.1865    1.0000 N   0  0  0  0  0  0  0  0  0  0  0  0
    4.5250   -0.1865    1.0000 C   0  0  0  0  0  0  0  0  0  0  0  0
    5.0317    0.0624    2.4113 C   0  0  0  0  0  0  0  0  0  0  0  0
    5.4283    0.2572    3.5162 C   0  0  0  0  0  0  0  0  0  0  0  0
   -0.6089    2.3536   -0.2411 C   0  0  0  0  0  0  0  0  0  0  0  0
   -1.3189    3.5833   -0.2411 O   0  0  0  0  0  0  0  0  0  0  0  0
   -2.1352    3.6586   -1.4005 C   0  0  0  0  0  0  0  0  0  0  0  0
  1  2  1  0
  2  3  2  0
  3  4  1  0
  4  5  2  0
  5  6  1  0
  6  7  2  0
  7  2  1  0
  5  8  1  0
  8  9  1  0
  9 10  1  0
 10 11  2  0
 10 12  1  0
 12 13  1  0
 13 14  1  0
 14 15  3  0
  8 16  1  0
 16 17  1  0
 17 18  1  0
M  END
$$$$
s_487a____11354914____1735730
     RDKit          3D

 24 24  0  0  0  0  0  0  0  0999 V2000
    1.9588   -5.7469    2.1269 F   0  0  0  0  0  0  0  0  0  0  0  0
    2.6743   -4.8985    1.3945 C   0  0  0  0  0  0  0  0  0  0  0  0
    3.8889   -5.3128    0.8562 C   0  0  0  0  0  0  0  0  0  0  0  0
    4.3338   -6.5682    1.0799 O   0  0  0  0  0  0  0  0  0  0  0  0
    4.6545   -4.4436    0.0860 C   0  0  0  0  0  0  0  0  0  0  0  0
    4.1914   -3.1517   -0.1410 C   0  0  0  0  0  0  0  0  0  0  0  0
    2.9765   -2.7434    0.3998 C   0  0  0  0  0  0  0  0  0  0  0  0
    2.2070   -3.6081    1.1702 C   0  0  0  0  0  0  0  0  0  0  0  0
    2.4700   -1.3325    0.1511 C   0  0  0  0  0  0  0  0  0  0  0  0
    2.9767   -0.4113    1.2488 C   0  0  0  0  0  0  0  0  0  0  0  0
    4.4967   -0.4113    1.2488 C   0  0  0  0  0  0  0  0  0  0  0  0
    5.0967   -0.7667    2.2254 O   0  0  0  0  0  0  0  0  0  0  0  0
    5.1517   -0.0233    0.1828 O   0  0  0  0  0  0  0  0  0  0  0  0
    6.5717   -0.0233    0.1828 C   0  0  0  0  0  0  0  0  0  0  0  0
    2.4700    1.0000    1.0000 C   0  0  0  0  0  0  0  0  0  0  0  0
    1.0000    1.0000    1.0000 N   0  0  0  0  0  0  0  0  0  0  0  0
    0.3150    1.0000    2.1865 C   0  0  0  0  0  0  0  0  0  0  0  0
    0.9150    1.0000    3.2257 O   0  0  0  0  0  0  0  0  0  0  0  0
   -1.0550    1.0000    2.1865 N   0  0  0  0  0  0  0  0  0  0  0  0
   -1.7900    1.0000    3.4595 C   0  0  0  0  0  0  0  0  0  0  0  0
   -3.2844    1.0000    3.1818 C   0  0  0  0  0  0  0  0  0  0  0  0
   -3.6057    2.0859    2.4843 F   0  0  0  0  0  0  0  0  0  0  0  0
   -3.6057   -0.0859    2.4843 F   0  0  0  0  0  0  0  0  0  0  0  0
   -3.9494    1.0000    4.3336 F   0  0  0  0  0  0  0  0  0  0  0  0
  1  2  1  0
  2  3  2  0
  3  4  1  0
  3  5  1  0
  5  6  2  0
  6  7  1  0
  7  8  2  0
  8  2  1  0
  7  9  1  0
  9 10  1  0
 10 11  1  0
 11 12  2  0
 11 13  1  0
 13 14  1  0
 10 15  1  0
 15 16  1  0
 16 17  1  0
 17 18  2  0
 17 19  1  0
 19 20  1  0
 20 21  1  0
 21 22  1  0
 21 23  1  0
 21 24  1  0
M  END
$$$$
s_22____411428____518218
     RDKit          3D

 21 21  0  0  0  0  0  0  0  0999 V2000
   -2.9155    6.6801    0.8241 Br  0  0  0  0  0  0  0  0  0  0  0  0
   -1.7801    5.1221    0.4707 C   0  0  0  0  0  0  0  0  0  0  0  0
   -2.2120    3.8548    0.8485 C   0  0  0  0  0  0  0  0  0  0  0  0
   -1.4019    2.7529    0.5950 C   0  0  0  0  0  0  0  0  0  0  0  0
   -0.1725    2.9293   -0.0314 C   0  0  0  0  0  0  0  0  0  0  0  0
    0.2533    4.1996   -0.4066 C   0  0  0  0  0  0  0  0  0  0  0  0
   -0.5515    5.3063   -0.1562 C   0  0  0  0  0  0  0  0  0  0  0  0
    0.7075    1.7208   -0.3059 C   0  0  0  0  0  0  0  0  0  0  0  0
    0.0129    0.8075   -1.2248 N   0  0  0  0  0  0  0  0  0  0  0  0
    0.5721    0.4993   -2.4369 C   0  0  0  0  0  0  0  0  0  0  0  0
    1.6288    0.9750   -2.7485 O   0  0  0  0  0  0  0  0  0  0  0  0
   -0.0752   -0.3518   -3.2933 N   0  0  0  0  0  0  0  0  0  0  0  0
    1.0000    1.0000    1.0000 C   0  0  0  0  0  0  0  0  0  0  0  0
    1.8776    1.8776    1.8776 C   0  0  0  0  0  0  0  0  0  0  0  0
    1.9688    3.0524    1.6507 O   0  0  0  0  0  0  0  0  0  0  0  0
    2.5644    1.3273    2.9275 N   0  0  0  0  0  0  0  0  0  0  0  0
    3.4131    2.1760    3.7762 C   0  0  0  0  0  0  0  0  0  0  0  0
    4.0574    1.3262    4.8593 C   0  0  0  0  0  0  0  0  0  0  0  0
    3.1098    0.7623    5.6029 F   0  0  0  0  0  0  0  0  0  0  0  0
    4.8011    0.3785    4.2954 F   0  0  0  0  0  0  0  0  0  0  0  0
    4.8253    2.0940    5.6271 F   0  0  0  0  0  0  0  0  0  0  0  0
  1  2  1  0
  2  3  2  0
  3  4  1  0
  4  5  2  0
  5  6  1  0
  6  7  2  0
  7  2  1  0
  5  8  1  0
  8  9  1  0
  9 10  1  0
 10 11  2  0
 10 12  1  0
  8 13  1  0
 13 14  1  0
 14 15  2  0
 14 16  1  0
 16 17  1  0
 17 18  1  0
 18 19  1  0
 18 20  1  0
 18 21  1  0
M  END
$$$$
s_240690a____16762142____7408864
     RDKit          3D

 22 22  0  0  0  0  0  0  0  0999 V2000
    2.2958   -3.1092   -4.3208 Cl  0  0  0  0  0  0  0  0  0  0  0  0
    2.5117   -1.7775   -3.1598 C   0  0  0  0  0  0  0  0  0  0  0  0
    3.2657   -1.9786   -2.0090 C   0  0  0  0  0  0  0  0  0  0  0  0
    3.4364   -0.9406   -1.0986 C   0  0  0  0  0  0  0  0  0  0  0  0
    2.8459    0.2921   -1.3561 C   0  0  0  0  0  0  0  0  0  0  0  0
    2.0917    0.4935   -2.5066 C   0  0  0  0  0  0  0  0  0  0  0  0
    1.9209   -0.5447   -3.4172 C   0  0  0  0  0  0  0  0  0  0  0  0
    3.0267    1.4309   -0.3667 C   0  0  0  0  0  0  0  0  0  0  0  0
    4.4521    1.7778   -0.2739 N   0  0  0  0  0  0  0  0  0  0  0  0
    4.8720    3.0415   -0.5957 C   0  0  0  0  0  0  0  0  0  0  0  0
    4.0761    3.8653   -0.9534 O   0  0  0  0  0  0  0  0  0  0  0  0
    6.3460    3.4001   -0.4997 C   0  0  0  0  0  0  0  0  0  0  0  0
    2.5200    1.0000    1.0000 C   0  0  0  0  0  0  0  0  0  0  0  0
    1.0000    1.0000    1.0000 C   0  0  0  0  0  0  0  0  0  0  0  0
    0.4000    1.0000   -0.0392 O   0  0  0  0  0  0  0  0  0  0  0  0
    0.3150    1.0000    2.1865 N   0  0  0  0  0  0  0  0  0  0  0  0
   -1.1350    1.0000    2.1865 N   0  0  0  0  0  0  0  0  0  0  0  0
   -1.6250   -0.3859    2.1865 C   0  0  0  0  0  0  0  0  0  0  0  0
   -3.1450   -0.3859    2.1865 C   0  0  0  0  0  0  0  0  0  0  0  0
   -3.5883   -1.6399    2.1865 F   0  0  0  0  0  0  0  0  0  0  0  0
   -3.5883    0.2410    3.2724 F   0  0  0  0  0  0  0  0  0  0  0  0
   -3.5883    0.2410    1.1005 F   0  0  0  0  0  0  0  0  0  0  0  0
  1  2  1  0
  2  3  2  0
  3  4  1  0
  4  5  2  0
  5  6  1  0
  6  7  2  0
  7  2  1  0
  5  8  1  0
  8  9  1  0
  9 10  1  0
 10 11  2  0
 10 12  1  0
  8 13  1  0
 13 14  1  0
 14 15  2  0
 14 16  1  0
 16 17  1  0
 17 18  1  0
 18 19  1  0
 19 20  1  0
 19 21  1  0
 19 22  1  0
M  END
$$$$
s_22____532122____58844
     RDKit          3D

 18 18  0  0  0  0  0  0  0  0999 V2000
   -2.9917    2.1240    2.4826 F   0  0  0  0  0  0  0  0  0  0  0  0
   -1.6617    2.1240    2.4826 C   0  0  0  0  0  0  0  0  0  0  0  0
   -1.2183    1.0122    3.0625 F   0  0  0  0  0  0  0  0  0  0  0  0
   -1.2183    3.1820    3.1555 F   0  0  0  0  0  0  0  0  0  0  0  0
   -1.1550    2.1854    1.0508 C   0  0  0  0  0  0  0  0  0  0  0  0
    0.3150    2.1854    1.0508 N   0  0  0  0  0  0  0  0  0  0  0  0
    1.0000    1.0000    1.0000 C   0  0  0  0  0  0  0  0  0  0  0  0
    0.4000   -0.0383    0.9555 O   0  0  0  0  0  0  0  0  0  0  0  0
    2.4501    1.0000    1.0000 C   0  0  0  0  0  0  0  0  0  0  0  0
    3.1287   -0.2134    0.9480 C   0  0  0  0  0  0  0  0  0  0  0  0
    4.5197   -0.2237    0.9475 C   0  0  0  0  0  0  0  0  0  0  0  0
    5.2153    0.9799    1.0000 C   0  0  0  0  0  0  0  0  0  0  0  0
    6.6147    0.9791    1.0002 N   0  0  0  0  0  0  0  0  0  0  0  0
    7.3001    1.1338    2.1763 C   0  0  0  0  0  0  0  0  0  0  0  0
    6.7545    0.9134    3.2221 O   0  0  0  0  0  0  0  0  0  0  0  0
    8.7516    1.5846    2.1565 C   0  0  0  0  0  0  0  0  0  0  0  0
    4.5359    2.1932    1.0521 C   0  0  0  0  0  0  0  0  0  0  0  0
    3.1449    2.2034    1.0523 C   0  0  0  0  0  0  0  0  0  0  0  0
  1  2  1  0
  2  3  1  0
  2  4  1  0
  2  5  1  0
  5  6  1  0
  6  7  1  0
  7  8  2  0
  7  9  1  0
  9 10  2  0
 10 11  1  0
 11 12  2  0
 12 13  1  0
 13 14  1  0
 14 15  2  0
 14 16  1  0
 12 17  1  0
 17 18  2  0
 18  9  1  0
M  END
$$$$
s_22____8859908____59693
     RDKit          3D

 21 21  0  0  0  0  0  0  0  0999 V2000
    0.4000    1.0000   -0.0392 O   0  0  0  0  0  0  0  0  0  0  0  0
    1.0000    1.0000    1.0000 C   0  0  0  0  0  0  0  0  0  0  0  0
    0.3150    1.0000    2.1865 N   0  0  0  0  0  0  0  0  0  0  0  0
   -1.1550    1.0000    2.1865 C   0  0  0  0  0  0  0  0  0  0  0  0
   -1.6617    2.2411    2.9030 C   0  0  0  0  0  0  0  0  0  0  0  0
   -2.0583    3.2127    3.4640 C   0  0  0  0  0  0  0  0  0  0  0  0
   -1.6617   -0.2411    2.9030 C   0  0  0  0  0  0  0  0  0  0  0  0
   -3.0817   -0.2411    2.9030 O   0  0  0  0  0  0  0  0  0  0  0  0
   -3.5550   -1.4005    3.5724 C   0  0  0  0  0  0  0  0  0  0  0  0
    2.5200    1.0000    1.0000 C   0  0  0  0  0  0  0  0  0  0  0  0
    3.0267    1.4309   -0.3667 C   0  0  0  0  0  0  0  0  0  0  0  0
    4.4855    1.6046   -0.3161 N   0  0  0  0  0  0  0  0  0  0  0  0
    5.0404    2.8242   -0.6018 C   0  0  0  0  0  0  0  0  0  0  0  0
    4.3356    3.7506   -0.8934 O   0  0  0  0  0  0  0  0  0  0  0  0
    6.5489    3.0038   -0.5495 C   0  0  0  0  0  0  0  0  0  0  0  0
    2.6784    0.3666   -1.3950 C   0  0  0  0  0  0  0  0  0  0  0  0
    3.1262   -0.9380   -1.2150 C   0  0  0  0  0  0  0  0  0  0  0  0
    2.8060   -1.9086   -2.1588 C   0  0  0  0  0  0  0  0  0  0  0  0
    2.0424   -1.5717   -3.2714 C   0  0  0  0  0  0  0  0  0  0  0  0
    1.6002   -0.2654   -3.4405 C   0  0  0  0  0  0  0  0  0  0  0  0
    1.9142    0.7144   -2.5044 C   0  0  0  0  0  0  0  0  0  0  0  0
  1  2  2  0
  2  3  1  0
  3  4  1  0
  4  5  1  0
  5  6  3  0
  4  7  1  0
  7  8  1  0
  8  9  1  0
  2 10  1  0
 10 11  1  0
 11 12  1  0
 12 13  1  0
 13 14  2  0
 13 15  1  0
 11 16  1  0
 16 17  2  0
 17 18  1  0
 18 19  2  0
 19 20  1  0
 20 21  2  0
 21 16  1  0
M  END
$$$$
s_22____13605040____17513450
     RDKit          3D

 23 23  0  0  0  0  0  0  0  0999 V2000
    0.4000    1.0000   -0.0392 O   0  0  0  0  0  0  0  0  0  0  0  0
    1.0000    1.0000    1.0000 C   0  0  0  0  0  0  0  0  0  0  0  0
    0.3150    1.0000    2.1865 N   0  0  0  0  0  0  0  0  0  0  0  0
    0.9835    1.4354    3.4211 C   0  0  0  0  0  0  0  0  0  0  0  0
    0.6609    2.8974    3.6834 C   0  0  0  0  0  0  0  0  0  0  0  0
    0.4084    4.0421    3.8888 C   0  0  0  0  0  0  0  0  0  0  0  0
   -1.0885    0.5646    2.2248 C   0  0  0  0  0  0  0  0  0  0  0  0
   -1.1498   -0.9533    2.1718 C   0  0  0  0  0  0  0  0  0  0  0  0
   -1.1148   -1.5114    3.5852 C   0  0  0  0  0  0  0  0  0  0  0  0
   -2.4370   -1.3848    1.4883 C   0  0  0  0  0  0  0  0  0  0  0  0
    2.5200    1.0000    1.0000 C   0  0  0  0  0  0  0  0  0  0  0  0
    3.0100    1.5857   -0.2561 N   0  0  0  0  0  0  0  0  0  0  0  0
    3.7976    2.7063   -0.2279 C   0  0  0  0  0  0  0  0  0  0  0  0
    4.0875    3.2097    0.8221 O   0  0  0  0  0  0  0  0  0  0  0  0
    4.3043    3.3120   -1.5267 C   0  0  0  0  0  0  0  0  0  0  0  0
    3.0267   -0.4276    1.1249 C   0  0  0  0  0  0  0  0  0  0  0  0
    4.4439   -0.4160    1.6744 C   0  0  0  0  0  0  0  0  0  0  0  0
    4.6450   -0.4672    3.0498 C   0  0  0  0  0  0  0  0  0  0  0  0
    5.9400   -0.4576    3.5572 C   0  0  0  0  0  0  0  0  0  0  0  0
    7.0190   -0.3973    2.6809 C   0  0  0  0  0  0  0  0  0  0  0  0
    8.2774   -0.3875    3.1690 O   0  0  0  0  0  0  0  0  0  0  0  0
    6.8233   -0.3457    1.3045 C   0  0  0  0  0  0  0  0  0  0  0  0
    5.5263   -0.3560    0.8027 C   0  0  0  0  0  0  0  0  0  0  0  0
  1  2  2  0
  2  3  1  0
  3  4  1  0
  4  5  1  0
  5  6  3  0
  3  7  1  0
  7  8  1  0
  8  9  1  0
  8 10  1  0
  2 11  1  0
 11 12  1  0
 12 13  1  0
 13 14  2  0
 13 15  1  0
 11 16  1  0
 16 17  1  0
 17 18  2  0
 18 19  1  0
 19 20  2  0
 20 21  1  0
 20 22  1  0
 22 23  2  0
 23 17  1  0
M  END
$$$$
s_22____10176574____9736332
     RDKit          3D

 19 19  0  0  0  0  0  0  0  0999 V2000
   -3.6217   -0.4113    1.9376 Br  0  0  0  0  0  0  0  0  0  0  0  0
   -1.6617   -0.4113    1.9376 C   0  0  0  0  0  0  0  0  0  0  0  0
   -1.2183   -0.8402    0.7593 F   0  0  0  0  0  0  0  0  0  0  0  0
   -1.2183   -1.2173    2.8982 F   0  0  0  0  0  0  0  0  0  0  0  0
   -1.1550    1.0000    2.1865 C   0  0  0  0  0  0  0  0  0  0  0  0
    0.3150    1.0000    2.1865 N   0  0  0  0  0  0  0  0  0  0  0  0
    1.0000    1.0000    1.0000 C   0  0  0  0  0  0  0  0  0  0  0  0
    0.4000    1.0000   -0.0392 O   0  0  0  0  0  0  0  0  0  0  0  0
    2.5200    1.0000    1.0000 C   0  0  0  0  0  0  0  0  0  0  0  0
    3.0100    0.1091    2.0617 N   0  0  0  0  0  0  0  0  0  0  0  0
    3.7976    0.6082    3.0654 C   0  0  0  0  0  0  0  0  0  0  0  0
    4.0875    1.7726    3.0779 O   0  0  0  0  0  0  0  0  0  0  0  0
    4.3043   -0.3129    4.1632 C   0  0  0  0  0  0  0  0  0  0  0  0
    3.0267    0.5099   -0.3466 C   0  0  0  0  0  0  0  0  0  0  0  0
    4.5482    0.5099   -0.3466 C   0  0  0  0  0  0  0  0  0  0  0  0
    5.3561   -0.5205    0.0284 N   0  0  0  0  0  0  0  0  0  0  0  0
    6.6175   -0.1695   -0.1034 C   0  0  0  0  0  0  0  0  0  0  0  0
    6.6386    1.1139   -0.5768 N   0  0  0  0  0  0  0  0  0  0  0  0
    5.3513    1.5485   -0.7256 C   0  0  0  0  0  0  0  0  0  0  0  0
  1  2  1  0
  2  3  1  0
  2  4  1  0
  2  5  1  0
  5  6  1  0
  6  7  1  0
  7  8  2  0
  7  9  1  0
  9 10  1  0
 10 11  1  0
 11 12  2  0
 11 13  1  0
  9 14  1  0
 14 15  1  0
 15 16  1  0
 16 17  2  0
 17 18  1  0
 18 19  1  0
 15 19  2  0
M  END
$$$$
s_22____12916098____58844
     RDKit          3D

 18 18  0  0  0  0  0  0  0  0999 V2000
    3.6355    0.5306    2.6002 F   0  0  0  0  0  0  0  0  0  0  0  0
    2.4729    1.0399    2.9975 C   0  0  0  0  0  0  0  0  0  0  0  0
    2.6667    1.8046    4.0682 F   0  0  0  0  0  0  0  0  0  0  0  0
    1.6375    0.0514    3.3040 F   0  0  0  0  0  0  0  0  0  0  0  0
    1.8776    1.8776    1.8776 C   0  0  0  0  0  0  0  0  0  0  0  0
    2.9238    2.4338    1.0950 O   0  0  0  0  0  0  0  0  0  0  0  0
    1.0000    1.0000    1.0000 C   0  0  0  0  0  0  0  0  0  0  0  0
    1.8487    0.1513    0.1513 N   0  0  0  0  0  0  0  0  0  0  0  0
    1.5592   -1.1799    0.0065 C   0  0  0  0  0  0  0  0  0  0  0  0
    0.6128   -1.6531    0.5726 O   0  0  0  0  0  0  0  0  0  0  0  0
    2.4368   -2.0575   -0.8710 C   0  0  0  0  0  0  0  0  0  0  0  0
    0.1224    1.8776    0.1224 C   0  0  0  0  0  0  0  0  0  0  0  0
   -0.7553    0.9998   -0.7553 C   0  0  0  0  0  0  0  0  0  0  0  0
   -0.2987    0.6020   -2.0076 C   0  0  0  0  0  0  0  0  0  0  0  0
   -1.1054   -0.2004   -2.8079 C   0  0  0  0  0  0  0  0  0  0  0  0
   -2.3578   -0.6002   -2.3537 C   0  0  0  0  0  0  0  0  0  0  0  0
   -2.8033   -0.1971   -1.1008 C   0  0  0  0  0  0  0  0  0  0  0  0
   -2.0064    0.6058   -0.2914 C   0  0  0  0  0  0  0  0  0  0  0  0
  1  2  1  0
  2  3  1  0
  2  4  1  0
  2  5  1  0
  5  6  1  0
  5  7  1  0
  7  8  1  0
  8  9  1  0
  9 10  2  0
  9 11  1  0
  7 12  1  0
 12 13  1  0
 13 14  2  0
 14 15  1  0
 15 16  2  0
 16 17  1  0
 17 18  2  0
 18 13  1  0
M  END
$$$$
s_22____10428088____17513450
     RDKit          3D

 20 20  0  0  0  0  0  0  0  0999 V2000
    0.4000   -0.0392    1.0000 O   0  0  0  0  0  0  0  0  0  0  0  0
    1.0000    1.0000    1.0000 C   0  0  0  0  0  0  0  0  0  0  0  0
    2.3700    1.0000    1.0000 N   0  0  0  0  0  0  0  0  0  0  0  0
    3.1050   -0.2731    1.0000 C   0  0  0  0  0  0  0  0  0  0  0  0
    4.5994    0.0047    1.0000 C   0  0  0  0  0  0  0  0  0  0  0  0
    5.2385    0.1235    2.1258 C   0  0  0  0  0  0  0  0  0  0  0  0
    5.8775    0.2422    3.2517 C   0  0  0  0  0  0  0  0  0  0  0  0
    0.2400    2.3164    1.0000 C   0  0  0  0  0  0  0  0  0  0  0  0
   -1.2052    2.0477    1.0000 N   0  0  0  0  0  0  0  0  0  0  0  0
   -1.9871    2.5058    2.0275 C   0  0  0  0  0  0  0  0  0  0  0  0
   -1.4922    3.1263    2.9275 O   0  0  0  0  0  0  0  0  0  0  0  0
   -3.4815    2.2281    2.0275 C   0  0  0  0  0  0  0  0  0  0  0  0
    0.6072    3.1134   -0.2411 C   0  0  0  0  0  0  0  0  0  0  0  0
   -0.1528    4.4298   -0.2411 C   0  0  0  0  0  0  0  0  0  0  0  0
    0.4132    5.5469    0.3644 C   0  0  0  0  0  0  0  0  0  0  0  0
   -0.2782    6.7537    0.3662 C   0  0  0  0  0  0  0  0  0  0  0  0
   -1.5287    6.8280   -0.2391 C   0  0  0  0  0  0  0  0  0  0  0  0
   -2.2034    7.9972   -0.2393 O   0  0  0  0  0  0  0  0  0  0  0  0
   -2.0995    5.7138   -0.8457 C   0  0  0  0  0  0  0  0  0  0  0  0
   -1.4035    4.5097   -0.8449 C   0  0  0  0  0  0  0  0  0  0  0  0
  1  2  2  0
  2  3  1  0
  3  4  1  0
  4  5  1  0
  5  6  2  3
  6  7  2  0
  2  8  1  0
  8  9  1  0
  9 10  1  0
 10 11  2  0
 10 12  1  0
  8 13  1  0
 13 14  1  0
 14 15  2  0
 15 16  1  0
 16 17  2  0
 17 18  1  0
 17 19  1  0
 19 20  2  0
 20 14  1  0
M  END
$$$$
s_270062____7604222____15585492
     RDKit          3D

 17 17  0  0  0  0  0  0  0  0999 V2000
   -2.9235    2.4847    3.4604 F   0  0  0  0  0  0  0  0  0  0  0  0
   -2.2169    1.4927    2.9269 C   0  0  0  0  0  0  0  0  0  0  0  0
   -2.6827    0.1855    3.0318 C   0  0  0  0  0  0  0  0  0  0  0  0
   -3.8269   -0.0647    3.6632 F   0  0  0  0  0  0  0  0  0  0  0  0
   -1.9615   -0.8687    2.4809 C   0  0  0  0  0  0  0  0  0  0  0  0
   -0.7659   -0.6012    1.8220 C   0  0  0  0  0  0  0  0  0  0  0  0
   -0.3055    0.7075    1.7206 C   0  0  0  0  0  0  0  0  0  0  0  0
   -1.0225    1.7652    2.2692 C   0  0  0  0  0  0  0  0  0  0  0  0
    1.0000    1.0000    1.0000 C   0  0  0  0  0  0  0  0  0  0  0  0
    1.8487    1.8487    1.8487 N   0  0  0  0  0  0  0  0  0  0  0  0
    3.0831    1.4052    2.2442 C   0  0  0  0  0  0  0  0  0  0  0  0
    3.4716    0.3240    1.8978 O   0  0  0  0  0  0  0  0  0  0  0  0
    3.9607    2.2828    3.1218 C   0  0  0  0  0  0  0  0  0  0  0  0
    0.7075    1.7208   -0.3059 C   0  0  0  0  0  0  0  0  0  0  0  0
   -0.3868    1.6571   -0.7943 O   0  0  0  0  0  0  0  0  0  0  0  0
    1.6931    2.4433   -0.9252 N   0  0  0  0  0  0  0  0  0  0  0  0
    1.4102    3.1404   -2.1881 C   0  0  0  0  0  0  0  0  0  0  0  0
  1  2  1  0
  2  3  2  0
  3  4  1  0
  3  5  1  0
  5  6  2  0
  6  7  1  0
  7  8  2  0
  8  2  1  0
  7  9  1  0
  9 10  1  0
 10 11  1  0
 11 12  2  0
 11 13  1  0
  9 14  1  0
 14 15  2  0
 14 16  1  0
 16 17  1  0
M  END
$$$$
s_2430a____10971440____14422702
     RDKit          3D

 24 24  0  0  0  0  0  0  0  0999 V2000
   -2.8333    1.9662    2.6006 F   0  0  0  0  0  0  0  0  0  0  0  0
   -1.6617    2.5574    2.3842 C   0  0  0  0  0  0  0  0  0  0  0  0
   -0.7856    2.1536    3.2999 F   0  0  0  0  0  0  0  0  0  0  0  0
   -1.8094    3.8768    2.4634 F   0  0  0  0  0  0  0  0  0  0  0  0
   -1.1550    2.1865    1.0000 C   0  0  0  0  0  0  0  0  0  0  0  0
    0.3150    2.1865    1.0000 N   0  0  0  0  0  0  0  0  0  0  0  0
    1.0000    1.0000    1.0000 C   0  0  0  0  0  0  0  0  0  0  0  0
    0.4000   -0.0392    1.0000 O   0  0  0  0  0  0  0  0  0  0  0  0
    2.3700    1.0000    1.0000 N   0  0  0  0  0  0  0  0  0  0  0  0
    3.1050   -0.2731    1.0000 C   0  0  0  0  0  0  0  0  0  0  0  0
    3.9789   -0.3536    2.2411 C   0  0  0  0  0  0  0  0  0  0  0  0
    5.0852   -0.8125    2.1672 O   0  0  0  0  0  0  0  0  0  0  0  0
    3.5034    0.0977    3.4441 N   0  0  0  0  0  0  0  0  0  0  0  0
    3.9789   -0.3536   -0.2411 C   0  0  0  0  0  0  0  0  0  0  0  0
    3.1050   -0.2731   -1.4822 C   0  0  0  0  0  0  0  0  0  0  0  0
    2.6004   -1.4427   -2.0410 C   0  0  0  0  0  0  0  0  0  0  0  0
    1.7997   -1.3738   -3.1761 C   0  0  0  0  0  0  0  0  0  0  0  0
    1.5131   -0.1339   -3.7385 C   0  0  0  0  0  0  0  0  0  0  0  0
    0.7367   -0.0625   -4.8404 O   0  0  0  0  0  0  0  0  0  0  0  0
    2.0154    1.0388   -3.1838 C   0  0  0  0  0  0  0  0  0  0  0  0
    2.8152    0.9641   -2.0485 C   0  0  0  0  0  0  0  0  0  0  0  0
   -1.6617    3.1998   -0.0133 C   0  0  0  0  0  0  0  0  0  0  0  0
   -0.6605    3.3234   -1.1503 C   0  0  0  0  0  0  0  0  0  0  0  0
   -3.0007    2.7384   -0.5653 C   0  0  0  0  0  0  0  0  0  0  0  0
  1  2  1  0
  2  3  1  0
  2  4  1  0
  2  5  1  0
  5  6  1  0
  6  7  1  0
  7  8  2  0
  7  9  1  0
  9 10  1  0
 10 11  1  0
 11 12  2  0
 11 13  1  0
 10 14  1  0
 14 15  1  0
 15 16  2  0
 16 17  1  0
 17 18  2  0
 18 19  1  0
 18 20  1  0
 20 21  2  0
 21 15  1  0
  5 22  1  0
 22 23  1  0
 22 24  1  0
M  END
$$$$
s_270004____8292504____7548520
     RDKit          3D

 18 18  0  0  0  0  0  0  0  0999 V2000
    2.2717    1.3060    5.8973 F   0  0  0  0  0  0  0  0  0  0  0  0
    3.4143    1.5620    5.2666 C   0  0  0  0  0  0  0  0  0  0  0  0
    4.0450    0.4194    5.0106 F   0  0  0  0  0  0  0  0  0  0  0  0
    4.1822    2.3299    6.0344 F   0  0  0  0  0  0  0  0  0  0  0  0
    3.1218    2.2828    3.9607 C   0  0  0  0  0  0  0  0  0  0  0  0
    2.2731    1.4341    3.1120 N   0  0  0  0  0  0  0  0  0  0  0  0
    1.8776    1.8776    1.8776 C   0  0  0  0  0  0  0  0  0  0  0  0
    2.2240    2.9588    1.4891 O   0  0  0  0  0  0  0  0  0  0  0  0
    1.0000    1.0000    1.0000 C   0  0  0  0  0  0  0  0  0  0  0  0
    0.7171    1.6971   -0.2629 N   0  0  0  0  0  0  0  0  0  0  0  0
   -0.1316    0.8484   -1.1116 C   0  0  0  0  0  0  0  0  0  0  0  0
   -0.4242    1.5694   -2.4179 C   0  0  0  0  0  0  0  0  0  0  0  0
    0.4259    1.4073   -3.5074 C   0  0  0  0  0  0  0  0  0  0  0  0
    1.5153    0.6140   -3.4216 O   0  0  0  0  0  0  0  0  0  0  0  0
    0.1583    2.0672   -4.7027 C   0  0  0  0  0  0  0  0  0  0  0  0
   -0.9598    2.8888   -4.8084 C   0  0  0  0  0  0  0  0  0  0  0  0
   -1.8099    3.0501   -3.7189 C   0  0  0  0  0  0  0  0  0  0  0  0
   -1.5423    2.3899   -2.5240 C   0  0  0  0  0  0  0  0  0  0  0  0
  1  2  1  0
  2  3  1  0
  2  4  1  0
  2  5  1  0
  5  6  1  0
  6  7  1  0
  7  8  2  0
  7  9  1  0
  9 10  1  0
 10 11  1  0
 11 12  1  0
 12 13  2  0
 13 14  1  0
 13 15  1  0
 15 16  2  0
 16 17  1  0
 17 18  2  0
 18 12  1  0
M  CHG  1  10   1
M  END
$$$$
s_272230____9453608____9453336
     RDKit          3D

 21 21  0  0  0  0  0  0  0  0999 V2000
    6.2463   -5.4773   -0.6049 F   0  0  0  0  0  0  0  0  0  0  0  0
    5.7058   -4.2647   -0.5196 C   0  0  0  0  0  0  0  0  0  0  0  0
    4.4110   -4.0502   -0.9808 C   0  0  0  0  0  0  0  0  0  0  0  0
    3.8528   -2.7793   -0.8891 C   0  0  0  0  0  0  0  0  0  0  0  0
    4.5945   -1.7397   -0.3381 C   0  0  0  0  0  0  0  0  0  0  0  0
    5.8883   -1.9600    0.1219 C   0  0  0  0  0  0  0  0  0  0  0  0
    6.4515   -3.2287    0.0331 C   0  0  0  0  0  0  0  0  0  0  0  0
    3.9789   -0.3536   -0.2411 C   0  0  0  0  0  0  0  0  0  0  0  0
    3.1050   -0.2731    1.0000 C   0  0  0  0  0  0  0  0  0  0  0  0
    2.3700    1.0000    1.0000 N   0  0  0  0  0  0  0  0  0  0  0  0
    1.0000    1.0000    1.0000 C   0  0  0  0  0  0  0  0  0  0  0  0
    0.4000   -0.0392    1.0000 O   0  0  0  0  0  0  0  0  0  0  0  0
    0.3150    2.1865    1.0000 N   0  0  0  0  0  0  0  0  0  0  0  0
   -1.1550    2.1865    1.0000 C   0  0  0  0  0  0  0  0  0  0  0  0
   -1.6617    3.6195    1.0000 C   0  0  0  0  0  0  0  0  0  0  0  0
   -2.9917    3.6195    1.0000 F   0  0  0  0  0  0  0  0  0  0  0  0
   -1.2183    4.2465    2.0859 F   0  0  0  0  0  0  0  0  0  0  0  0
   -1.2183    4.2465   -0.0859 F   0  0  0  0  0  0  0  0  0  0  0  0
    3.9789   -0.3536    2.2411 C   0  0  0  0  0  0  0  0  0  0  0  0
    4.2678   -1.4315    2.7087 O   0  0  0  0  0  0  0  0  0  0  0  0
    4.3990    0.6938    2.7786 O   0  0  0  0  0  0  0  0  0  0  0  0
  1  2  1  0
  2  3  2  0
  3  4  1  0
  4  5  2  0
  5  6  1  0
  6  7  2  0
  7  2  1  0
  5  8  1  0
  8  9  1  0
  9 10  1  0
 10 11  1  0
 11 12  2  0
 11 13  1  0
 13 14  1  0
 14 15  1  0
 15 16  1  0
 15 17  1  0
 15 18  1  0
  9 19  1  0
 19 20  1  0
 19 21  2  0
M  CHG  1  20  -1
M  END
$$$$
s_2708____11569280____10545754
     RDKit          3D

 24 24  0  0  0  0  0  0  0  0999 V2000
    6.1492   -5.8235    0.5425 F   0  0  0  0  0  0  0  0  0  0  0  0
    5.7442   -4.5573    0.5908 C   0  0  0  0  0  0  0  0  0  0  0  0
    4.8372   -4.0845   -0.3521 C   0  0  0  0  0  0  0  0  0  0  0  0
    4.4190   -2.7589   -0.2958 C   0  0  0  0  0  0  0  0  0  0  0  0
    4.9115   -1.9233    0.7010 C   0  0  0  0  0  0  0  0  0  0  0  0
    5.8176   -2.4016    1.6414 C   0  0  0  0  0  0  0  0  0  0  0  0
    6.2391   -3.7261    1.5903 C   0  0  0  0  0  0  0  0  0  0  0  0
    4.4506   -0.4762    0.7568 C   0  0  0  0  0  0  0  0  0  0  0  0
    2.9767   -0.4276    1.1249 C   0  0  0  0  0  0  0  0  0  0  0  0
    2.7959   -0.9060    2.5563 C   0  0  0  0  0  0  0  0  0  0  0  0
    3.3385   -0.3261    3.4558 O   0  0  0  0  0  0  0  0  0  0  0  0
    2.0133   -1.9993    2.8194 N   0  0  0  0  0  0  0  0  0  0  0  0
    2.0112   -2.5953    4.1632 C   0  0  0  0  0  0  0  0  0  0  0  0
    1.1759   -2.5764    1.7581 C   0  0  0  0  0  0  0  0  0  0  0  0
    2.4700    1.0000    1.0000 C   0  0  0  0  0  0  0  0  0  0  0  0
    1.0000    1.0000    1.0000 N   0  0  0  0  0  0  0  0  0  0  0  0
    0.3150    1.0000    2.1865 C   0  0  0  0  0  0  0  0  0  0  0  0
    0.8607    1.3554    3.1943 O   0  0  0  0  0  0  0  0  0  0  0  0
   -0.9930    0.5942    2.2222 N   0  0  0  0  0  0  0  0  0  0  0  0
   -1.7280    0.5942    3.4953 C   0  0  0  0  0  0  0  0  0  0  0  0
   -2.4058    1.9409    3.6890 C   0  0  0  0  0  0  0  0  0  0  0  0
   -1.4861    2.9014    3.7081 F   0  0  0  0  0  0  0  0  0  0  0  0
   -3.2536    2.1586    2.6876 F   0  0  0  0  0  0  0  0  0  0  0  0
   -3.1658    1.9409    5.0054 C   0  0  0  0  0  0  0  0  0  0  0  0
  1  2  1  0
  2  3  2  0
  3  4  1  0
  4  5  2  0
  5  6  1  0
  6  7  2  0
  7  2  1  0
  5  8  1  0
  8  9  1  0
  9 10  1  0
 10 11  2  0
 10 12  1  0
 12 13  1  0
 12 14  1  0
  9 15  1  0
 15 16  1  0
 16 17  1  0
 17 18  2  0
 17 19  1  0
 19 20  1  0
 20 21  1  0
 21 22  1  0
 21 23  1  0
 21 24  1  0
M  END
$$$$
s_22____9291954____220032
     RDKit          3D

 19 19  0  0  0  0  0  0  0  0999 V2000
    1.7301    0.2657   -2.6418 S   0  0  0  0  0  0  0  0  0  0  0  0
    2.8456    0.2901   -1.3578 C   0  0  0  0  0  0  0  0  0  0  0  0
    3.5319   -0.8836   -1.3934 C   0  0  0  0  0  0  0  0  0  0  0  0
    3.1125   -1.7431   -2.4464 C   0  0  0  0  0  0  0  0  0  0  0  0
    2.1148   -1.2777   -3.2494 C   0  0  0  0  0  0  0  0  0  0  0  0
    3.0267    1.4309   -0.3667 C   0  0  0  0  0  0  0  0  0  0  0  0
    4.4521    1.7778   -0.2739 N   0  0  0  0  0  0  0  0  0  0  0  0
    4.8720    3.0415   -0.5957 C   0  0  0  0  0  0  0  0  0  0  0  0
    4.0761    3.8653   -0.9534 O   0  0  0  0  0  0  0  0  0  0  0  0
    6.3460    3.4001   -0.4997 C   0  0  0  0  0  0  0  0  0  0  0  0
    2.5200    1.0000    1.0000 C   0  0  0  0  0  0  0  0  0  0  0  0
    1.0000    1.0000    1.0000 C   0  0  0  0  0  0  0  0  0  0  0  0
    0.4000    1.0000   -0.0392 O   0  0  0  0  0  0  0  0  0  0  0  0
    0.3150    1.0000    2.1865 N   0  0  0  0  0  0  0  0  0  0  0  0
   -1.1550    1.0000    2.1865 C   0  0  0  0  0  0  0  0  0  0  0  0
   -1.6617    2.2411    2.9030 C   0  0  0  0  0  0  0  0  0  0  0  0
   -2.0583    3.2127    3.4640 C   0  0  0  0  0  0  0  0  0  0  0  0
   -1.6617   -0.2411    2.9030 C   0  0  0  0  0  0  0  0  0  0  0  0
   -3.1817   -0.2411    2.9030 C   0  0  0  0  0  0  0  0  0  0  0  0
  1  2  1  0
  2  3  2  0
  3  4  1  0
  4  5  2  0
  5  1  1  0
  2  6  1  0
  6  7  1  0
  7  8  1  0
  8  9  2  0
  8 10  1  0
  6 11  1  0
 11 12  1  0
 12 13  2  0
 12 14  1  0
 14 15  1  0
 15 16  1  0
 16 17  3  0
 15 18  1  0
 18 19  1  0
M  END
$$$$
s_22____17505418____3192126
     RDKit          3D

 25 25  0  0  0  0  0  0  0  0999 V2000
    3.0725    0.2003    0.2003 O   0  0  0  0  0  0  0  0  0  0  0  0
    1.8776    0.1224    0.1224 C   0  0  0  0  0  0  0  0  0  0  0  0
    1.3043   -0.7574   -0.7574 N   0  0  0  0  0  0  0  0  0  0  0  0
    2.1530   -1.6061   -1.6061 C   0  0  0  0  0  0  0  0  0  0  0  0
    3.0306   -0.7286   -2.4837 C   0  0  0  0  0  0  0  0  0  0  0  0
    3.7176   -0.0415   -3.1707 C   0  0  0  0  0  0  0  0  0  0  0  0
    3.0306   -2.4837   -0.7286 C   0  0  0  0  0  0  0  0  0  0  0  0
    3.9082   -3.3613   -1.6061 C   0  0  0  0  0  0  0  0  0  0  0  0
    1.2755   -2.4837   -2.4837 C   0  0  0  0  0  0  0  0  0  0  0  0
    0.3979   -1.6061   -3.3613 C   0  0  0  0  0  0  0  0  0  0  0  0
    1.0000    1.0000    1.0000 C   0  0  0  0  0  0  0  0  0  0  0  0
    1.8776    1.8776    1.8776 C   0  0  0  0  0  0  0  0  0  0  0  0
    1.0289    2.7263    2.7263 N   0  0  0  0  0  0  0  0  0  0  0  0
    1.1178    2.6374    4.0905 C   0  0  0  0  0  0  0  0  0  0  0  0
    1.8884    1.8667    4.5926 O   0  0  0  0  0  0  0  0  0  0  0  0
    0.2402    3.5150    4.9681 C   0  0  0  0  0  0  0  0  0  0  0  0
    2.7554    2.7554    0.9997 C   0  0  0  0  0  0  0  0  0  0  0  0
    4.1409    2.6650    1.0902 C   0  0  0  0  0  0  0  0  0  0  0  0
    4.7223    1.8036    1.9524 O   0  0  0  0  0  0  0  0  0  0  0  0
    6.1379    1.7248    2.0312 C   0  0  0  0  0  0  0  0  0  0  0  0
    6.5305    0.6871    3.0701 C   0  0  0  0  0  0  0  0  0  0  0  0
    4.9443    3.4684    0.2870 C   0  0  0  0  0  0  0  0  0  0  0  0
    4.3619    4.3618   -0.6069 C   0  0  0  0  0  0  0  0  0  0  0  0
    2.9764    4.4513   -0.6974 C   0  0  0  0  0  0  0  0  0  0  0  0
    2.1734    3.6478    0.1055 C   0  0  0  0  0  0  0  0  0  0  0  0
  1  2  2  0
  2  3  1  0
  3  4  1  0
  4  5  1  0
  5  6  3  0
  4  7  1  0
  7  8  1  0
  4  9  1  0
  9 10  1  0
  2 11  1  0
 11 12  1  0
 12 13  1  0
 13 14  1  0
 14 15  2  0
 14 16  1  0
 12 17  1  0
 17 18  2  0
 18 19  1  0
 19 20  1  0
 20 21  1  0
 18 22  1  0
 22 23  2  0
 23 24  1  0
 24 25  2  0
 25 17  1  0
M  END
$$$$
s_2430a____11944322____7963962
     RDKit          3D

 24 25  0  0  0  0  0  0  0  0999 V2000
    4.4025    3.9394   -3.4369 Br  0  0  0  0  0  0  0  0  0  0  0  0
    4.9753    3.1239   -1.7494 C   0  0  0  0  0  0  0  0  0  0  0  0
    4.5382    1.8456   -1.4198 C   0  0  0  0  0  0  0  0  0  0  0  0
    4.9532    1.2808   -0.2177 C   0  0  0  0  0  0  0  0  0  0  0  0
    5.7918    1.9749    0.6479 C   0  0  0  0  0  0  0  0  0  0  0  0
    6.2167    3.2526    0.2989 C   0  0  0  0  0  0  0  0  0  0  0  0
    5.8138    3.8356   -0.8980 C   0  0  0  0  0  0  0  0  0  0  0  0
    4.4778   -0.1165    0.1463 C   0  0  0  0  0  0  0  0  0  0  0  0
    3.0721   -0.1427    0.5841 N   0  0  0  0  0  0  0  0  0  0  0  0
    2.3700    1.0000    1.0000 C   0  0  0  0  0  0  0  0  0  0  0  0
    2.9700    1.9766    1.3554 O   0  0  0  0  0  0  0  0  0  0  0  0
    1.0000    1.0000    1.0000 N   0  0  0  0  0  0  0  0  0  0  0  0
    0.2650    2.2731    1.0000 C   0  0  0  0  0  0  0  0  0  0  0  0
   -1.2294    1.9953    1.0000 C   0  0  0  0  0  0  0  0  0  0  0  0
   -1.8944    3.1471    1.0000 F   0  0  0  0  0  0  0  0  0  0  0  0
   -1.5507    1.2979   -0.0859 F   0  0  0  0  0  0  0  0  0  0  0  0
   -1.5507    1.2979    2.0859 F   0  0  0  0  0  0  0  0  0  0  0  0
    0.6322    3.0701    2.2411 C   0  0  0  0  0  0  0  0  0  0  0  0
    0.6322    3.0701   -0.2411 C   0  0  0  0  0  0  0  0  0  0  0  0
    2.4785   -1.4875    0.5746 C   0  0  0  0  0  0  0  0  0  0  0  0
    2.4190   -2.0232   -0.8471 C   0  0  0  0  0  0  0  0  0  0  0  0
    3.7270   -1.8970   -1.5084 N   0  0  0  0  0  0  0  0  0  0  0  0
    4.7115   -0.9991   -1.0762 C   0  0  0  0  0  0  0  0  0  0  0  0
    5.7482   -0.9196   -1.7168 O   0  0  0  0  0  0  0  0  0  0  0  0
  1  2  1  0
  2  3  2  0
  3  4  1  0
  4  5  2  0
  5  6  1  0
  6  7  2  0
  7  2  1  0
  4  8  1  0
  8  9  1  0
  9 10  1  0
 10 11  2  0
 10 12  1  0
 12 13  1  0
 13 14  1  0
 14 15  1  0
 14 16  1  0
 14 17  1  0
 13 18  1  0
 13 19  1  0
  9 20  1  0
 20 21  1  0
 21 22  1  0
 22 23  1  0
 23  8  1  0
 23 24  2  0
M  END
$$$$
s_22____6914294____8850186
     RDKit          3D

 20 20  0  0  0  0  0  0  0  0999 V2000
    6.5117    0.1041    3.4615 F   0  0  0  0  0  0  0  0  0  0  0  0
    5.1817    0.1041    3.4615 C   0  0  0  0  0  0  0  0  0  0  0  0
    4.7383    0.9101    4.4221 F   0  0  0  0  0  0  0  0  0  0  0  0
    4.7383   -1.1308    3.6793 F   0  0  0  0  0  0  0  0  0  0  0  0
    4.6750    0.5942    2.1149 C   0  0  0  0  0  0  0  0  0  0  0  0
    3.2050    0.5942    2.1149 N   0  0  0  0  0  0  0  0  0  0  0  0
    2.5200    1.0000    1.0000 C   0  0  0  0  0  0  0  0  0  0  0  0
    3.1200    1.3554    0.0234 O   0  0  0  0  0  0  0  0  0  0  0  0
    1.0000    1.0000    1.0000 C   0  0  0  0  0  0  0  0  0  0  0  0
    0.4000   -0.0392    1.0000 O   0  0  0  0  0  0  0  0  0  0  0  0
    0.3150    2.1865    1.0000 N   0  0  0  0  0  0  0  0  0  0  0  0
   -1.1550    2.1865    1.0000 C   0  0  0  0  0  0  0  0  0  0  0  0
   -1.6617    2.4353    2.4113 C   0  0  0  0  0  0  0  0  0  0  0  0
   -1.8898    3.7399    2.8365 C   0  0  0  0  0  0  0  0  0  0  0  0
   -2.3541    3.9724    4.1268 C   0  0  0  0  0  0  0  0  0  0  0  0
   -2.5852    2.8953    4.9765 C   0  0  0  0  0  0  0  0  0  0  0  0
   -3.0355    3.1164    6.2297 O   0  0  0  0  0  0  0  0  0  0  0  0
   -2.3584    1.5886    4.5564 C   0  0  0  0  0  0  0  0  0  0  0  0
   -1.8944    1.3619    3.2650 C   0  0  0  0  0  0  0  0  0  0  0  0
    1.0500    3.4595    1.0000 C   0  0  0  0  0  0  0  0  0  0  0  0
  1  2  1  0
  2  3  1  0
  2  4  1  0
  2  5  1  0
  5  6  1  0
  6  7  1  0
  7  8  2  0
  7  9  1  0
  9 10  2  0
  9 11  1  0
 11 12  1  0
 12 13  1  0
 13 14  2  0
 14 15  1  0
 15 16  2  0
 16 17  1  0
 16 18  1  0
 18 19  2  0
 19 13  1  0
 11 20  1  0
M  END
$$$$
s_270062____16412582____15585492
     RDKit          3D

 17 17  0  0  0  0  0  0  0  0999 V2000
    0.2321    1.9873    3.5230 F   0  0  0  0  0  0  0  0  0  0  0  0
    1.0000    2.7551    2.7551 C   0  0  0  0  0  0  0  0  0  0  0  0
    1.7679    3.5230    3.5230 F   0  0  0  0  0  0  0  0  0  0  0  0
    1.8776    1.8776    1.8776 C   0  0  0  0  0  0  0  0  0  0  0  0
    2.6974    1.0577    2.6974 O   0  0  0  0  0  0  0  0  0  0  0  0
    1.0000    1.0000    1.0000 C   0  0  0  0  0  0  0  0  0  0  0  0
    1.8487    0.1513    0.1513 N   0  0  0  0  0  0  0  0  0  0  0  0
    1.7598   -1.2129    0.2402 C   0  0  0  0  0  0  0  0  0  0  0  0
    0.9891   -1.7150    1.0109 O   0  0  0  0  0  0  0  0  0  0  0  0
    2.6374   -2.0905   -0.6374 C   0  0  0  0  0  0  0  0  0  0  0  0
    0.1224    1.8776    0.1224 C   0  0  0  0  0  0  0  0  0  0  0  0
   -0.7553    0.9998   -0.7553 C   0  0  0  0  0  0  0  0  0  0  0  0
   -2.0076    0.6020   -0.2987 C   0  0  0  0  0  0  0  0  0  0  0  0
   -2.8072   -0.2018   -1.1047 C   0  0  0  0  0  0  0  0  0  0  0  0
   -2.3534   -0.6007   -2.3575 C   0  0  0  0  0  0  0  0  0  0  0  0
   -1.1009   -0.1969   -2.8035 C   0  0  0  0  0  0  0  0  0  0  0  0
   -0.2917    0.6064   -2.0067 C   0  0  0  0  0  0  0  0  0  0  0  0
  1  2  1  0
  2  3  1  0
  2  4  1  0
  4  5  1  0
  4  6  1  0
  6  7  1  0
  7  8  1  0
  8  9  2  0
  8 10  1  0
  6 11  1  0
 11 12  1  0
 12 13  2  0
 13 14  1  0
 14 15  2  0
 15 16  1  0
 16 17  2  0
 17 12  1  0
M  END
$$$$
s_2430a____11944322____13611208
     RDKit          3D

 23 23  0  0  0  0  0  0  0  0999 V2000
   -2.9556    2.5699    5.5897 F   0  0  0  0  0  0  0  0  0  0  0  0
   -2.1899    2.4980    4.5043 C   0  0  0  0  0  0  0  0  0  0  0  0
   -0.8453    2.1631    4.6269 C   0  0  0  0  0  0  0  0  0  0  0  0
   -0.0505    2.0908    3.4874 C   0  0  0  0  0  0  0  0  0  0  0  0
   -0.6088    2.3536    2.2409 C   0  0  0  0  0  0  0  0  0  0  0  0
   -1.9538    2.6873    2.1242 C   0  0  0  0  0  0  0  0  0  0  0  0
   -2.7533    2.7608    3.2599 C   0  0  0  0  0  0  0  0  0  0  0  0
    0.2650    2.2731    1.0000 C   0  0  0  0  0  0  0  0  0  0  0  0
    1.0000    1.0000    1.0000 N   0  0  0  0  0  0  0  0  0  0  0  0
    2.3700    1.0000    1.0000 C   0  0  0  0  0  0  0  0  0  0  0  0
    2.9700    2.0392    1.0000 O   0  0  0  0  0  0  0  0  0  0  0  0
    3.0550   -0.1865    1.0000 N   0  0  0  0  0  0  0  0  0  0  0  0
    4.5250   -0.1865    1.0000 C   0  0  0  0  0  0  0  0  0  0  0  0
    5.0317   -1.6195    1.0000 C   0  0  0  0  0  0  0  0  0  0  0  0
    6.3617   -1.6195    1.0000 F   0  0  0  0  0  0  0  0  0  0  0  0
    4.5883   -2.2465    2.0859 F   0  0  0  0  0  0  0  0  0  0  0  0
    4.5883   -2.2465   -0.0859 F   0  0  0  0  0  0  0  0  0  0  0  0
    5.0317    0.5301   -0.2411 C   0  0  0  0  0  0  0  0  0  0  0  0
    5.0317    0.5301    2.2411 C   0  0  0  0  0  0  0  0  0  0  0  0
    0.2650   -0.2731    1.0000 C   0  0  0  0  0  0  0  0  0  0  0  0
   -0.6089    2.3536   -0.2411 C   0  0  0  0  0  0  0  0  0  0  0  0
    0.2075    2.2784   -1.4005 O   0  0  0  0  0  0  0  0  0  0  0  0
   -0.6089    2.3536   -2.5599 C   0  0  0  0  0  0  0  0  0  0  0  0
  1  2  1  0
  2  3  2  0
  3  4  1  0
  4  5  2  0
  5  6  1  0
  6  7  2  0
  7  2  1  0
  5  8  1  0
  8  9  1  0
  9 10  1  0
 10 11  2  0
 10 12  1  0
 12 13  1  0
 13 14  1  0
 14 15  1  0
 14 16  1  0
 14 17  1  0
 13 18  1  0
 13 19  1  0
  9 20  1  0
  8 21  1  0
 21 22  1  0
 22 23  1  0
M  END
$$$$
s_272164____14971778____9388244
     RDKit          3D

 20 20  0  0  0  0  0  0  0  0999 V2000
    2.9700    2.0392    1.0000 O   0  0  0  0  0  0  0  0  0  0  0  0
    2.3700    1.0000    1.0000 C   0  0  0  0  0  0  0  0  0  0  0  0
    3.0550   -0.1865    1.0000 N   0  0  0  0  0  0  0  0  0  0  0  0
    4.5250   -0.1865    1.0000 C   0  0  0  0  0  0  0  0  0  0  0  0
    5.0317   -0.1865    2.4331 C   0  0  0  0  0  0  0  0  0  0  0  0
    5.4283   -0.1865    3.5550 C   0  0  0  0  0  0  0  0  0  0  0  0
    2.3200   -1.4595    1.0000 C   0  0  0  0  0  0  0  0  0  0  0  0
    1.0000    1.0000    1.0000 N   0  0  0  0  0  0  0  0  0  0  0  0
    0.2650    2.2731    1.0000 C   0  0  0  0  0  0  0  0  0  0  0  0
   -0.6089    2.3536   -0.2411 C   0  0  0  0  0  0  0  0  0  0  0  0
   -0.7132    3.3910   -0.8352 O   0  0  0  0  0  0  0  0  0  0  0  0
   -1.2774    1.2418   -0.6814 N   0  0  0  0  0  0  0  0  0  0  0  0
   -2.1225    1.3197   -1.8817 C   0  0  0  0  0  0  0  0  0  0  0  0
   -0.6089    2.3536    2.2411 C   0  0  0  0  0  0  0  0  0  0  0  0
   -1.3690    3.6702    2.2411 C   0  0  0  0  0  0  0  0  0  0  0  0
   -2.6198    3.7437    1.6369 C   0  0  0  0  0  0  0  0  0  0  0  0
   -3.3116    4.9506    1.6384 C   0  0  0  0  0  0  0  0  0  0  0  0
   -2.7525    6.0720    2.2423 C   0  0  0  0  0  0  0  0  0  0  0  0
   -1.5027    5.9867    2.8431 C   0  0  0  0  0  0  0  0  0  0  0  0
   -0.8006    4.7858    2.8477 C   0  0  0  0  0  0  0  0  0  0  0  0
  1  2  2  0
  2  3  1  0
  3  4  1  0
  4  5  1  0
  5  6  3  0
  3  7  1  0
  2  8  1  0
  8  9  1  0
  9 10  1  0
 10 11  2  0
 10 12  1  0
 12 13  1  0
  9 14  1  0
 14 15  1  0
 15 16  2  0
 16 17  1  0
 17 18  2  0
 18 19  1  0
 19 20  2  0
 20 15  1  0
M  END
$$$$
s_22____10176574____9162286
     RDKit          3D

 19 19  0  0  0  0  0  0  0  0999 V2000
   -0.1219    4.3438    4.8894 Br  0  0  0  0  0  0  0  0  0  0  0  0
    1.5620    3.4143    5.2666 C   0  0  0  0  0  0  0  0  0  0  0  0
    1.3060    2.2717    5.8973 F   0  0  0  0  0  0  0  0  0  0  0  0
    2.3299    4.1822    6.0344 F   0  0  0  0  0  0  0  0  0  0  0  0
    2.2828    3.1218    3.9607 C   0  0  0  0  0  0  0  0  0  0  0  0
    1.4341    2.2731    3.1120 N   0  0  0  0  0  0  0  0  0  0  0  0
    1.8776    1.8776    1.8776 C   0  0  0  0  0  0  0  0  0  0  0  0
    2.9588    2.2240    1.4891 O   0  0  0  0  0  0  0  0  0  0  0  0
    1.0000    1.0000    1.0000 C   0  0  0  0  0  0  0  0  0  0  0  0
   -0.2199    0.7267    1.6734 O   0  0  0  0  0  0  0  0  0  0  0  0
    0.7075    1.7208   -0.3059 C   0  0  0  0  0  0  0  0  0  0  0  0
   -0.1698    0.8436   -1.1831 C   0  0  0  0  0  0  0  0  0  0  0  0
   -1.5525    0.9507   -1.0760 C   0  0  0  0  0  0  0  0  0  0  0  0
   -2.3536    0.1476   -1.8803 C   0  0  0  0  0  0  0  0  0  0  0  0
   -3.6975    0.2346   -1.7917 O   0  0  0  0  0  0  0  0  0  0  0  0
   -4.2913    1.1452   -0.8782 C   0  0  0  0  0  0  0  0  0  0  0  0
   -1.7814   -0.7488   -2.7771 C   0  0  0  0  0  0  0  0  0  0  0  0
   -0.3969   -0.8476   -2.8743 C   0  0  0  0  0  0  0  0  0  0  0  0
    0.4152   -0.0489   -2.0759 C   0  0  0  0  0  0  0  0  0  0  0  0
  1  2  1  0
  2  3  1  0
  2  4  1  0
  2  5  1  0
  5  6  1  0
  6  7  1  0
  7  8  2  0
  7  9  1  0
  9 10  1  0
  9 11  1  0
 11 12  1  0
 12 13  2  0
 13 14  1  0
 14 15  1  0
 15 16  1  0
 14 17  2  0
 17 18  1  0
 18 19  2  0
 19 12  1  0
M  END
$$$$
s_22____664724____17513450
     RDKit          3D

 22 23  0  0  0  0  0  0  0  0999 V2000
    3.0596    1.6786    1.9338 O   0  0  0  0  0  0  0  0  0  0  0  0
    1.8776    1.8776    1.8776 C   0  0  0  0  0  0  0  0  0  0  0  0
    1.3190    2.8957    2.6044 N   0  0  0  0  0  0  0  0  0  0  0  0
    2.1677    3.7445    3.4531 C   0  0  0  0  0  0  0  0  0  0  0  0
    2.8615    4.7907    2.5920 C   0  0  0  0  0  0  0  0  0  0  0  0
    1.8883    5.6976    1.8601 C   0  0  0  0  0  0  0  0  0  0  0  0
    2.6579    6.8462    1.5494 O   0  0  0  0  0  0  0  0  0  0  0  0
    3.7290    6.9544    2.4748 C   0  0  0  0  0  0  0  0  0  0  0  0
    3.5806    5.8086    3.4522 C   0  0  0  0  0  0  0  0  0  0  0  0
    1.0000    1.0000    1.0000 C   0  0  0  0  0  0  0  0  0  0  0  0
   -0.2629    0.7171    1.6971 N   0  0  0  0  0  0  0  0  0  0  0  0
   -0.6150   -0.5766    1.9787 C   0  0  0  0  0  0  0  0  0  0  0  0
    0.1075   -1.4788    1.6563 O   0  0  0  0  0  0  0  0  0  0  0  0
   -1.9209   -0.8691    2.6995 C   0  0  0  0  0  0  0  0  0  0  0  0
    0.7075    1.7208   -0.3059 C   0  0  0  0  0  0  0  0  0  0  0  0
   -0.1701    0.8432   -1.1835 C   0  0  0  0  0  0  0  0  0  0  0  0
   -1.5540    0.9425   -1.0842 C   0  0  0  0  0  0  0  0  0  0  0  0
   -2.3610    0.1420   -1.8857 C   0  0  0  0  0  0  0  0  0  0  0  0
   -1.7726   -0.7486   -2.7781 C   0  0  0  0  0  0  0  0  0  0  0  0
   -2.5520   -1.5276   -3.5577 O   0  0  0  0  0  0  0  0  0  0  0  0
   -0.3891   -0.8520   -2.8811 C   0  0  0  0  0  0  0  0  0  0  0  0
    0.4131   -0.0489   -2.0774 C   0  0  0  0  0  0  0  0  0  0  0  0
  1  2  2  0
  2  3  1  0
  3  4  1  0
  4  5  1  0
  5  6  1  0
  6  7  1  0
  7  8  1  0
  8  9  1  0
  9  5  1  0
  2 10  1  0
 10 11  1  0
 11 12  1  0
 12 13  2  0
 12 14  1  0
 10 15  1  0
 15 16  1  0
 16 17  2  0
 17 18  1  0
 18 19  2  0
 19 20  1  0
 19 21  1  0
 21 22  2  0
 22 16  1  0
M  END
$$$$
s_240690a____8699394____17513472
     RDKit          3D

 22 23  0  0  0  0  0  0  0  0999 V2000
    3.0596    1.6786    1.9338 O   0  0  0  0  0  0  0  0  0  0  0  0
    1.8776    1.8776    1.8776 C   0  0  0  0  0  0  0  0  0  0  0  0
    1.3190    2.8957    2.6044 N   0  0  0  0  0  0  0  0  0  0  0  0
    2.1677    3.7445    3.4531 C   0  0  0  0  0  0  0  0  0  0  0  0
    2.8602    4.7887    2.5936 C   0  0  0  0  0  0  0  0  0  0  0  0
    1.8631    5.6793    1.8753 C   0  0  0  0  0  0  0  0  0  0  0  0
    2.6404    6.8739    1.5229 N   0  0  0  0  0  0  0  0  0  0  0  0
    3.7317    6.9880    2.4960 C   0  0  0  0  0  0  0  0  0  0  0  0
    3.5775    5.8139    3.4473 C   0  0  0  0  0  0  0  0  0  0  0  0
    1.0000    1.0000    1.0000 C   0  0  0  0  0  0  0  0  0  0  0  0
   -0.2629    0.7171    1.6971 N   0  0  0  0  0  0  0  0  0  0  0  0
   -0.6150   -0.5766    1.9787 C   0  0  0  0  0  0  0  0  0  0  0  0
    0.1075   -1.4788    1.6563 O   0  0  0  0  0  0  0  0  0  0  0  0
   -1.9209   -0.8691    2.6995 C   0  0  0  0  0  0  0  0  0  0  0  0
    0.7075    1.7208   -0.3059 C   0  0  0  0  0  0  0  0  0  0  0  0
   -0.1701    0.8432   -1.1835 C   0  0  0  0  0  0  0  0  0  0  0  0
   -1.5540    0.9425   -1.0842 C   0  0  0  0  0  0  0  0  0  0  0  0
   -2.3610    0.1420   -1.8857 C   0  0  0  0  0  0  0  0  0  0  0  0
   -1.7726   -0.7486   -2.7781 C   0  0  0  0  0  0  0  0  0  0  0  0
   -2.5520   -1.5276   -3.5577 O   0  0  0  0  0  0  0  0  0  0  0  0
   -0.3891   -0.8520   -2.8811 C   0  0  0  0  0  0  0  0  0  0  0  0
    0.4131   -0.0489   -2.0774 C   0  0  0  0  0  0  0  0  0  0  0  0
  1  2  2  0
  2  3  1  0
  3  4  1  0
  4  5  1  0
  5  6  1  0
  6  7  1  0
  7  8  1  0
  8  9  1  0
  9  5  1  0
  2 10  1  0
 10 11  1  0
 11 12  1  0
 12 13  2  0
 12 14  1  0
 10 15  1  0
 15 16  1  0
 16 17  2  0
 17 18  1  0
 18 19  2  0
 19 20  1  0
 19 21  1  0
 21 22  2  0
 22 16  1  0
M  CHG  1   7   1
M  END
$$$$
s_22____12107366____17513450
     RDKit          3D

 22 23  0  0  0  0  0  0  0  0999 V2000
    3.9344    5.8929    3.5356 S   0  0  0  0  0  0  0  0  0  0  0  0
    2.8616    4.7908    2.5919 C   0  0  0  0  0  0  0  0  0  0  0  0
    1.6742    6.0208    2.0142 S   0  0  0  0  0  0  0  0  0  0  0  0
    2.6463    7.5433    1.9582 C   0  0  0  0  0  0  0  0  0  0  0  0
    4.0858    7.2343    2.3343 C   0  0  0  0  0  0  0  0  0  0  0  0
    2.1677    3.7445    3.4531 C   0  0  0  0  0  0  0  0  0  0  0  0
    1.3190    2.8957    2.6044 N   0  0  0  0  0  0  0  0  0  0  0  0
    1.8776    1.8776    1.8776 C   0  0  0  0  0  0  0  0  0  0  0  0
    3.0596    1.6786    1.9338 O   0  0  0  0  0  0  0  0  0  0  0  0
    1.0000    1.0000    1.0000 C   0  0  0  0  0  0  0  0  0  0  0  0
   -0.2629    0.7171    1.6971 N   0  0  0  0  0  0  0  0  0  0  0  0
   -0.6150   -0.5766    1.9787 C   0  0  0  0  0  0  0  0  0  0  0  0
    0.1075   -1.4788    1.6563 O   0  0  0  0  0  0  0  0  0  0  0  0
   -1.9209   -0.8691    2.6995 C   0  0  0  0  0  0  0  0  0  0  0  0
    0.7075    1.7208   -0.3059 C   0  0  0  0  0  0  0  0  0  0  0  0
   -0.1701    0.8432   -1.1835 C   0  0  0  0  0  0  0  0  0  0  0  0
   -1.5540    0.9425   -1.0842 C   0  0  0  0  0  0  0  0  0  0  0  0
   -2.3610    0.1420   -1.8857 C   0  0  0  0  0  0  0  0  0  0  0  0
   -1.7726   -0.7486   -2.7781 C   0  0  0  0  0  0  0  0  0  0  0  0
   -2.5520   -1.5276   -3.5577 O   0  0  0  0  0  0  0  0  0  0  0  0
   -0.3891   -0.8520   -2.8811 C   0  0  0  0  0  0  0  0  0  0  0  0
    0.4131   -0.0489   -2.0774 C   0  0  0  0  0  0  0  0  0  0  0  0
  1  2  1  0
  2  3  1  0
  3  4  1  0
  4  5  1  0
  5  1  1  0
  2  6  1  0
  6  7  1  0
  7  8  1  0
  8  9  2  0
  8 10  1  0
 10 11  1  0
 11 12  1  0
 12 13  2  0
 12 14  1  0
 10 15  1  0
 15 16  1  0
 16 17  2  0
 17 18  1  0
 18 19  2  0
 19 20  1  0
 19 21  1  0
 21 22  2  0
 22 16  1  0
M  END
$$$$
s_22____587016____17513450
     RDKit          3D

 22 23  0  0  0  0  0  0  0  0999 V2000
    3.0596    1.6786    1.9338 O   0  0  0  0  0  0  0  0  0  0  0  0
    1.8776    1.8776    1.8776 C   0  0  0  0  0  0  0  0  0  0  0  0
    1.3190    2.8957    2.6044 N   0  0  0  0  0  0  0  0  0  0  0  0
    2.1677    3.7445    3.4531 C   0  0  0  0  0  0  0  0  0  0  0  0
    2.8608    4.7895    2.5929 C   0  0  0  0  0  0  0  0  0  0  0  0
    3.7517    5.6979    3.4070 C   0  0  0  0  0  0  0  0  0  0  0  0
    3.9598    6.9122    2.5206 C   0  0  0  0  0  0  0  0  0  0  0  0
    2.7256    6.9689    1.6309 C   0  0  0  0  0  0  0  0  0  0  0  0
    1.8647    5.7907    2.0467 C   0  0  0  0  0  0  0  0  0  0  0  0
    1.0000    1.0000    1.0000 C   0  0  0  0  0  0  0  0  0  0  0  0
   -0.2629    0.7171    1.6971 N   0  0  0  0  0  0  0  0  0  0  0  0
   -0.6150   -0.5766    1.9787 C   0  0  0  0  0  0  0  0  0  0  0  0
    0.1075   -1.4788    1.6563 O   0  0  0  0  0  0  0  0  0  0  0  0
   -1.9209   -0.8691    2.6995 C   0  0  0  0  0  0  0  0  0  0  0  0
    0.7075    1.7208   -0.3059 C   0  0  0  0  0  0  0  0  0  0  0  0
   -0.1701    0.8432   -1.1835 C   0  0  0  0  0  0  0  0  0  0  0  0
   -1.5540    0.9425   -1.0842 C   0  0  0  0  0  0  0  0  0  0  0  0
   -2.3610    0.1420   -1.8857 C   0  0  0  0  0  0  0  0  0  0  0  0
   -1.7726   -0.7486   -2.7781 C   0  0  0  0  0  0  0  0  0  0  0  0
   -2.5520   -1.5276   -3.5577 O   0  0  0  0  0  0  0  0  0  0  0  0
   -0.3891   -0.8520   -2.8811 C   0  0  0  0  0  0  0  0  0  0  0  0
    0.4131   -0.0489   -2.0774 C   0  0  0  0  0  0  0  0  0  0  0  0
  1  2  2  0
  2  3  1  0
  3  4  1  0
  4  5  1  0
  5  6  1  0
  6  7  1  0
  7  8  1  0
  8  9  1  0
  9  5  1  0
  2 10  1  0
 10 11  1  0
 11 12  1  0
 12 13  2  0
 12 14  1  0
 10 15  1  0
 15 16  1  0
 16 17  2  0
 17 18  1  0
 18 19  2  0
 19 20  1  0
 19 21  1  0
 21 22  2  0
 22 16  1  0
M  END
$$$$
s_22____736064____17513450
     RDKit          3D

 22 23  0  0  0  0  0  0  0  0999 V2000
    3.0596    1.6786    1.9338 O   0  0  0  0  0  0  0  0  0  0  0  0
    1.8776    1.8776    1.8776 C   0  0  0  0  0  0  0  0  0  0  0  0
    1.3190    2.8957    2.6044 N   0  0  0  0  0  0  0  0  0  0  0  0
    2.1677    3.7445    3.4531 C   0  0  0  0  0  0  0  0  0  0  0  0
    2.6637    4.9339    2.6457 C   0  0  0  0  0  0  0  0  0  0  0  0
    2.0737    6.0971    2.5240 N   0  0  0  0  0  0  0  0  0  0  0  0
    2.7666    6.9054    1.7528 N   0  0  0  0  0  0  0  0  0  0  0  0
    3.8863    6.2463    1.3366 C   0  0  0  0  0  0  0  0  0  0  0  0
    3.8518    4.9993    1.8821 C   0  0  0  0  0  0  0  0  0  0  0  0
    1.0000    1.0000    1.0000 C   0  0  0  0  0  0  0  0  0  0  0  0
   -0.2629    0.7171    1.6971 N   0  0  0  0  0  0  0  0  0  0  0  0
   -0.6150   -0.5766    1.9787 C   0  0  0  0  0  0  0  0  0  0  0  0
    0.1075   -1.4788    1.6563 O   0  0  0  0  0  0  0  0  0  0  0  0
   -1.9209   -0.8691    2.6995 C   0  0  0  0  0  0  0  0  0  0  0  0
    0.7075    1.7208   -0.3059 C   0  0  0  0  0  0  0  0  0  0  0  0
   -0.1701    0.8432   -1.1835 C   0  0  0  0  0  0  0  0  0  0  0  0
   -1.5540    0.9425   -1.0842 C   0  0  0  0  0  0  0  0  0  0  0  0
   -2.3610    0.1420   -1.8857 C   0  0  0  0  0  0  0  0  0  0  0  0
   -1.7726   -0.7486   -2.7781 C   0  0  0  0  0  0  0  0  0  0  0  0
   -2.5520   -1.5276   -3.5577 O   0  0  0  0  0  0  0  0  0  0  0  0
   -0.3891   -0.8520   -2.8811 C   0  0  0  0  0  0  0  0  0  0  0  0
    0.4131   -0.0489   -2.0774 C   0  0  0  0  0  0  0  0  0  0  0  0
  1  2  2  0
  2  3  1  0
  3  4  1  0
  4  5  1  0
  5  6  2  0
  6  7  1  0
  7  8  1  0
  8  9  2  0
  9  5  1  0
  2 10  1  0
 10 11  1  0
 11 12  1  0
 12 13  2  0
 12 14  1  0
 10 15  1  0
 15 16  1  0
 16 17  2  0
 17 18  1  0
 18 19  2  0
 19 20  1  0
 19 21  1  0
 21 22  2  0
 22 16  1  0
M  END
$$$$
s_22____58384____17513450
     RDKit          3D

 22 23  0  0  0  0  0  0  0  0999 V2000
    1.8720    6.4340    2.5079 S   0  0  0  0  0  0  0  0  0  0  0  0
    2.6641    4.9349    2.6450 C   0  0  0  0  0  0  0  0  0  0  0  0
    3.8058    5.0098    1.9097 C   0  0  0  0  0  0  0  0  0  0  0  0
    3.9733    6.2674    1.2664 C   0  0  0  0  0  0  0  0  0  0  0  0
    2.9956    7.1928    1.4778 C   0  0  0  0  0  0  0  0  0  0  0  0
    2.1677    3.7445    3.4531 C   0  0  0  0  0  0  0  0  0  0  0  0
    1.3190    2.8957    2.6044 N   0  0  0  0  0  0  0  0  0  0  0  0
    1.8776    1.8776    1.8776 C   0  0  0  0  0  0  0  0  0  0  0  0
    3.0596    1.6786    1.9338 O   0  0  0  0  0  0  0  0  0  0  0  0
    1.0000    1.0000    1.0000 C   0  0  0  0  0  0  0  0  0  0  0  0
   -0.2629    0.7171    1.6971 N   0  0  0  0  0  0  0  0  0  0  0  0
   -0.6150   -0.5766    1.9787 C   0  0  0  0  0  0  0  0  0  0  0  0
    0.1075   -1.4788    1.6563 O   0  0  0  0  0  0  0  0  0  0  0  0
   -1.9209   -0.8691    2.6995 C   0  0  0  0  0  0  0  0  0  0  0  0
    0.7075    1.7208   -0.3059 C   0  0  0  0  0  0  0  0  0  0  0  0
   -0.1701    0.8432   -1.1835 C   0  0  0  0  0  0  0  0  0  0  0  0
   -1.5540    0.9425   -1.0842 C   0  0  0  0  0  0  0  0  0  0  0  0
   -2.3610    0.1420   -1.8857 C   0  0  0  0  0  0  0  0  0  0  0  0
   -1.7726   -0.7486   -2.7781 C   0  0  0  0  0  0  0  0  0  0  0  0
   -2.5520   -1.5276   -3.5577 O   0  0  0  0  0  0  0  0  0  0  0  0
   -0.3891   -0.8520   -2.8811 C   0  0  0  0  0  0  0  0  0  0  0  0
    0.4131   -0.0489   -2.0774 C   0  0  0  0  0  0  0  0  0  0  0  0
  1  2  1  0
  2  3  2  0
  3  4  1  0
  4  5  2  0
  5  1  1  0
  2  6  1  0
  6  7  1  0
  7  8  1  0
  8  9  2  0
  8 10  1  0
 10 11  1  0
 11 12  1  0
 12 13  2  0
 12 14  1  0
 10 15  1  0
 15 16  1  0
 16 17  2  0
 17 18  1  0
 18 19  2  0
 19 20  1  0
 19 21  1  0
 21 22  2  0
 22 16  1  0
M  END
$$$$
s_22____10176574____12900018
     RDKit          3D

 19 19  0  0  0  0  0  0  0  0999 V2000
   -3.6217    1.0000    3.6195 Br  0  0  0  0  0  0  0  0  0  0  0  0
   -1.6617    1.0000    3.6195 C   0  0  0  0  0  0  0  0  0  0  0  0
   -1.2183   -0.0859    4.2465 F   0  0  0  0  0  0  0  0  0  0  0  0
   -1.2183    2.0859    4.2465 F   0  0  0  0  0  0  0  0  0  0  0  0
   -1.1550    1.0000    2.1865 C   0  0  0  0  0  0  0  0  0  0  0  0
    0.3150    1.0000    2.1865 N   0  0  0  0  0  0  0  0  0  0  0  0
    1.0000    1.0000    1.0000 C   0  0  0  0  0  0  0  0  0  0  0  0
    0.4000    1.0000   -0.0392 O   0  0  0  0  0  0  0  0  0  0  0  0
    2.5200    1.0000    1.0000 C   0  0  0  0  0  0  0  0  0  0  0  0
    3.0100    1.0000   -0.3859 N   0  0  0  0  0  0  0  0  0  0  0  0
    3.2434   -0.2126   -1.0460 C   0  0  0  0  0  0  0  0  0  0  0  0
    2.2184   -0.8090   -1.7736 C   0  0  0  0  0  0  0  0  0  0  0  0
    2.4541   -2.0135   -2.4281 C   0  0  0  0  0  0  0  0  0  0  0  0
    3.7069   -2.6126   -2.3521 C   0  0  0  0  0  0  0  0  0  0  0  0
    4.7243   -2.0071   -1.6223 C   0  0  0  0  0  0  0  0  0  0  0  0
    4.5003   -0.8027   -0.9635 C   0  0  0  0  0  0  0  0  0  0  0  0
    3.2383    2.1865   -1.0318 C   0  0  0  0  0  0  0  0  0  0  0  0
    3.0383    3.2257   -0.4661 O   0  0  0  0  0  0  0  0  0  0  0  0
    3.7450    2.1865   -2.4648 C   0  0  0  0  0  0  0  0  0  0  0  0
  1  2  1  0
  2  3  1  0
  2  4  1  0
  2  5  1  0
  5  6  1  0
  6  7  1  0
  7  8  2  0
  7  9  1  0
  9 10  1  0
 10 11  1  0
 11 12  2  0
 12 13  1  0
 13 14  2  0
 14 15  1  0
 15 16  2  0
 16 11  1  0
 10 17  1  0
 17 18  2  0
 17 19  1  0
M  END
$$$$
s_2708____13426432____10545754
     RDKit          3D

 19 19  0  0  0  0  0  0  0  0999 V2000
    3.4521   -5.5743   -0.4340 F   0  0  0  0  0  0  0  0  0  0  0  0
    4.1165   -4.4222   -0.4334 C   0  0  0  0  0  0  0  0  0  0  0  0
    5.5075   -4.4345   -0.4339 C   0  0  0  0  0  0  0  0  0  0  0  0
    6.1914   -3.2233   -0.4335 C   0  0  0  0  0  0  0  0  0  0  0  0
    7.6114   -3.2265   -0.4342 O   0  0  0  0  0  0  0  0  0  0  0  0
    5.5085   -2.0117   -0.4332 C   0  0  0  0  0  0  0  0  0  0  0  0
    4.1181   -2.0279   -0.4331 C   0  0  0  0  0  0  0  0  0  0  0  0
    3.4097   -3.2244   -0.4331 C   0  0  0  0  0  0  0  0  0  0  0  0
    3.3583   -0.7118   -0.4331 C   0  0  0  0  0  0  0  0  0  0  0  0
    3.1050   -0.2731    1.0000 C   0  0  0  0  0  0  0  0  0  0  0  0
    2.3700    1.0000    1.0000 N   0  0  0  0  0  0  0  0  0  0  0  0
    1.0000    1.0000    1.0000 C   0  0  0  0  0  0  0  0  0  0  0  0
    0.4000   -0.0392    1.0000 O   0  0  0  0  0  0  0  0  0  0  0  0
    0.3150    2.1865    1.0000 N   0  0  0  0  0  0  0  0  0  0  0  0
   -1.1550    2.1865    1.0000 C   0  0  0  0  0  0  0  0  0  0  0  0
   -1.6617    2.1865    2.4331 C   0  0  0  0  0  0  0  0  0  0  0  0
   -1.2183    1.1005    3.0600 F   0  0  0  0  0  0  0  0  0  0  0  0
   -1.2183    3.2724    3.0600 F   0  0  0  0  0  0  0  0  0  0  0  0
   -3.1817    2.1865    2.4331 C   0  0  0  0  0  0  0  0  0  0  0  0
  1  2  1  0
  2  3  2  0
  3  4  1  0
  4  5  1  0
  4  6  2  0
  6  7  1  0
  7  8  2  0
  8  2  1  0
  7  9  1  0
  9 10  1  0
 10 11  1  0
 11 12  1  0
 12 13  2  0
 12 14  1  0
 14 15  1  0
 15 16  1  0
 16 17  1  0
 16 18  1  0
 16 19  1  0
M  END
$$$$
s_22____17631962____107338
     RDKit          3D

 24 25  0  0  0  0  0  0  0  0999 V2000
    3.0725    1.7997    1.7997 O   0  0  0  0  0  0  0  0  0  0  0  0
    1.8776    1.8776    1.8776 C   0  0  0  0  0  0  0  0  0  0  0  0
    1.3043    2.7574    2.7574 N   0  0  0  0  0  0  0  0  0  0  0  0
    2.1486    3.6832    3.5262 C   0  0  0  0  0  0  0  0  0  0  0  0
    1.5338    5.0729    3.4968 C   0  0  0  0  0  0  0  0  0  0  0  0
    1.0524    6.1610    3.4737 C   0  0  0  0  0  0  0  0  0  0  0  0
    2.2472    3.2019    4.9684 C   0  0  0  0  0  0  0  0  0  0  0  0
    2.8545    1.8165    5.0685 C   0  0  0  0  0  0  0  0  0  0  0  0
    1.8785    1.5668    6.1973 C   0  0  0  0  0  0  0  0  0  0  0  0
    0.9801    2.5819    5.5153 C   0  0  0  0  0  0  0  0  0  0  0  0
    1.0000    1.0000    1.0000 C   0  0  0  0  0  0  0  0  0  0  0  0
    0.7075    1.7208   -0.3059 C   0  0  0  0  0  0  0  0  0  0  0  0
   -0.5184    2.5190   -0.1610 N   0  0  0  0  0  0  0  0  0  0  0  0
   -0.4439    3.8164    0.2726 C   0  0  0  0  0  0  0  0  0  0  0  0
    0.6114    4.3877    0.2774 O   0  0  0  0  0  0  0  0  0  0  0  0
   -1.6978    4.5321    0.7478 C   0  0  0  0  0  0  0  0  0  0  0  0
    0.5195    0.7004   -1.4167 C   0  0  0  0  0  0  0  0  0  0  0  0
   -0.7511    0.1969   -1.6756 C   0  0  0  0  0  0  0  0  0  0  0  0
   -0.9280   -0.7364   -2.6916 C   0  0  0  0  0  0  0  0  0  0  0  0
    0.1698   -1.1543   -3.4372 C   0  0  0  0  0  0  0  0  0  0  0  0
   -0.0061   -2.1072   -4.4752 O   0  0  0  0  0  0  0  0  0  0  0  0
    1.1100   -2.5381   -5.2400 C   0  0  0  0  0  0  0  0  0  0  0  0
    1.4426   -0.6541   -3.1821 C   0  0  0  0  0  0  0  0  0  0  0  0
    1.6137    0.2792   -2.1653 C   0  0  0  0  0  0  0  0  0  0  0  0
  1  2  2  0
  2  3  1  0
  3  4  1  0
  4  5  1  0
  5  6  3  0
  4  7  1  0
  7  8  1  0
  8  9  1  0
  9 10  1  0
 10  7  1  0
  2 11  1  0
 11 12  1  0
 12 13  1  0
 13 14  1  0
 14 15  2  0
 14 16  1  0
 12 17  1  0
 17 18  2  0
 18 19  1  0
 19 20  2  0
 20 21  1  0
 21 22  1  0
 20 23  1  0
 23 24  2  0
 24 17  1  0
M  END
$$$$
s_22____12421186____107338
     RDKit          3D

 24 24  0  0  0  0  0  0  0  0999 V2000
    0.9150    1.0000    3.2257 O   0  0  0  0  0  0  0  0  0  0  0  0
    0.3150    1.0000    2.1865 C   0  0  0  0  0  0  0  0  0  0  0  0
    1.0000    1.0000    1.0000 N   0  0  0  0  0  0  0  0  0  0  0  0
    2.4700    1.0000    1.0000 C   0  0  0  0  0  0  0  0  0  0  0  0
    2.9767   -0.4331    1.0000 C   0  0  0  0  0  0  0  0  0  0  0  0
    3.3733   -1.5550    1.0000 C   0  0  0  0  0  0  0  0  0  0  0  0
    3.8800   -2.9881    1.0000 C   0  0  0  0  0  0  0  0  0  0  0  0
    5.3500   -2.9881    1.0000 N   0  0  0  0  0  0  0  0  0  0  0  0
    5.8400   -4.3740    1.0000 C   0  0  0  0  0  0  0  0  0  0  0  0
    5.8400   -2.2951   -0.2002 C   0  0  0  0  0  0  0  0  0  0  0  0
   -1.2050    1.0000    2.1865 C   0  0  0  0  0  0  0  0  0  0  0  0
   -1.7117   -0.4331    2.1865 C   0  0  0  0  0  0  0  0  0  0  0  0
   -1.2217   -1.1260    0.9862 N   0  0  0  0  0  0  0  0  0  0  0  0
   -0.0246   -1.7914    1.0201 C   0  0  0  0  0  0  0  0  0  0  0  0
    0.6239   -1.8086    2.0296 O   0  0  0  0  0  0  0  0  0  0  0  0
    0.4821   -2.5080   -0.2209 C   0  0  0  0  0  0  0  0  0  0  0  0
   -3.2317   -0.4331    2.1865 C   0  0  0  0  0  0  0  0  0  0  0  0
   -3.9161   -0.4331    0.9755 C   0  0  0  0  0  0  0  0  0  0  0  0
   -5.3069   -0.4338    0.9706 C   0  0  0  0  0  0  0  0  0  0  0  0
   -5.9966   -0.4351    2.1789 C   0  0  0  0  0  0  0  0  0  0  0  0
   -7.4166   -0.4355    2.1788 O   0  0  0  0  0  0  0  0  0  0  0  0
   -8.1267   -0.4368    3.4085 C   0  0  0  0  0  0  0  0  0  0  0  0
   -5.3170   -0.4347    3.3928 C   0  0  0  0  0  0  0  0  0  0  0  0
   -3.9262   -0.4344    3.3918 C   0  0  0  0  0  0  0  0  0  0  0  0
  1  2  2  0
  2  3  1  0
  3  4  1  0
  4  5  1  0
  5  6  3  0
  6  7  1  0
  7  8  1  0
  8  9  1  0
  8 10  1  0
  2 11  1  0
 11 12  1  0
 12 13  1  0
 13 14  1  0
 14 15  2  0
 14 16  1  0
 12 17  1  0
 17 18  2  0
 18 19  1  0
 19 20  2  0
 20 21  1  0
 21 22  1  0
 20 23  1  0
 23 24  2  0
 24 17  1  0
M  CHG  1   8   1
M  END
$$$$
s_2430a____13259370____9866160
     RDKit          3D

 24 24  0  0  0  0  0  0  0  0999 V2000
   -0.4864    4.7017   -1.3204 S   0  0  0  0  0  0  0  0  0  0  0  0
   -0.8006    3.2423   -0.5020 C   0  0  0  0  0  0  0  0  0  0  0  0
    0.2272    2.4116   -0.8364 C   0  0  0  0  0  0  0  0  0  0  0  0
    1.1872    2.9772   -1.7177 C   0  0  0  0  0  0  0  0  0  0  0  0
    0.9647    4.2645   -2.1034 C   0  0  0  0  0  0  0  0  0  0  0  0
    0.2650    1.0000   -0.2731 C   0  0  0  0  0  0  0  0  0  0  0  0
    1.0000    1.0000    1.0000 N   0  0  0  0  0  0  0  0  0  0  0  0
    0.3150    1.0000    2.1865 C   0  0  0  0  0  0  0  0  0  0  0  0
   -0.8713    0.8195    2.1943 O   0  0  0  0  0  0  0  0  0  0  0  0
    0.9844    1.2060    3.3639 N   0  0  0  0  0  0  0  0  0  0  0  0
    0.2499    1.6415    4.5605 C   0  0  0  0  0  0  0  0  0  0  0  0
    1.2187    1.7953    5.7216 C   0  0  0  0  0  0  0  0  0  0  0  0
    0.5541    2.1893    6.8042 F   0  0  0  0  0  0  0  0  0  0  0  0
    1.8090    0.6284    5.9640 F   0  0  0  0  0  0  0  0  0  0  0  0
    2.1405    2.7028    5.4126 F   0  0  0  0  0  0  0  0  0  0  0  0
   -0.4248    2.9751    4.2834 C   0  0  0  0  0  0  0  0  0  0  0  0
   -1.6965    3.0808    5.1093 C   0  0  0  0  0  0  0  0  0  0  0  0
   -0.8037    0.6043    4.9137 C   0  0  0  0  0  0  0  0  0  0  0  0
    2.4700    1.0000    1.0000 C   0  0  0  0  0  0  0  0  0  0  0  0
    2.9767   -0.4331    1.0000 C   0  0  0  0  0  0  0  0  0  0  0  0
    4.4467   -0.4331    1.0000 N   0  0  0  0  0  0  0  0  0  0  0  0
    5.1317   -1.6195    1.0000 C   0  0  0  0  0  0  0  0  0  0  0  0
    4.5317   -2.6588    1.0000 O   0  0  0  0  0  0  0  0  0  0  0  0
    6.6517   -1.6195    1.0000 C   0  0  0  0  0  0  0  0  0  0  0  0
  1  2  1  0
  2  3  2  0
  3  4  1  0
  4  5  2  0
  5  1  1  0
  3  6  1  0
  6  7  1  0
  7  8  1  0
  8  9  2  0
  8 10  1  0
 10 11  1  0
 11 12  1  0
 12 13  1  0
 12 14  1  0
 12 15  1  0
 11 16  1  0
 16 17  1  0
 11 18  1  0
  7 19  1  0
 19 20  1  0
 20 21  1  0
 21 22  1  0
 22 23  2  0
 22 24  1  0
M  END
$$$$
s_527a____12307800____16717360
     RDKit          3D

 29 29  0  0  0  0  0  0  0  0999 V2000
    4.3624    7.8088    3.8221 F   0  0  0  0  0  0  0  0  0  0  0  0
    3.5945    7.0409    3.0542 C   0  0  0  0  0  0  0  0  0  0  0  0
    4.2252    6.7850    1.9116 F   0  0  0  0  0  0  0  0  0  0  0  0
    2.4519    7.6716    2.7983 F   0  0  0  0  0  0  0  0  0  0  0  0
    3.3020    5.7351    3.7751 C   0  0  0  0  0  0  0  0  0  0  0  0
    2.6712    5.9910    4.9177 F   0  0  0  0  0  0  0  0  0  0  0  0
    4.4446    5.1043    4.0310 F   0  0  0  0  0  0  0  0  0  0  0  0
    2.4244    4.8575    2.8975 C   0  0  0  0  0  0  0  0  0  0  0  0
    2.1415    3.5946    3.5946 N   0  0  0  0  0  0  0  0  0  0  0  0
    1.3043    2.7574    2.7574 N   0  0  0  0  0  0  0  0  0  0  0  0
    1.8776    1.8776    1.8776 C   0  0  0  0  0  0  0  0  0  0  0  0
    3.0725    1.7997    1.7997 O   0  0  0  0  0  0  0  0  0  0  0  0
    1.0000    1.0000    1.0000 C   0  0  0  0  0  0  0  0  0  0  0  0
    0.7171    1.6971   -0.2629 N   0  0  0  0  0  0  0  0  0  0  0  0
    1.5540    1.5376   -1.3358 C   0  0  0  0  0  0  0  0  0  0  0  0
    2.5180    0.8288   -1.2446 O   0  0  0  0  0  0  0  0  0  0  0  0
    1.2615    2.2584   -2.6416 C   0  0  0  0  0  0  0  0  0  0  0  0
    1.9216    3.5718   -2.6349 N   0  0  0  0  0  0  0  0  0  0  0  0
    3.1979    3.6995   -3.1161 C   0  0  0  0  0  0  0  0  0  0  0  0
    3.7770    2.7391   -3.5431 O   0  0  0  0  0  0  0  0  0  0  0  0
    3.8805    5.0576   -3.1091 C   0  0  0  0  0  0  0  0  0  0  0  0
   -0.3059    0.7075    1.7208 C   0  0  0  0  0  0  0  0  0  0  0  0
   -1.1835   -0.1701    0.8432 C   0  0  0  0  0  0  0  0  0  0  0  0
   -1.0842   -1.5540    0.9425 C   0  0  0  0  0  0  0  0  0  0  0  0
   -1.8857   -2.3610    0.1420 C   0  0  0  0  0  0  0  0  0  0  0  0
   -2.7781   -1.7726   -0.7486 C   0  0  0  0  0  0  0  0  0  0  0  0
   -3.5982   -2.5925   -1.5681 O   0  0  0  0  0  0  0  0  0  0  0  0
   -2.8811   -0.3891   -0.8520 C   0  0  0  0  0  0  0  0  0  0  0  0
   -2.0774    0.4131   -0.0489 C   0  0  0  0  0  0  0  0  0  0  0  0
  1  2  1  0
  2  3  1  0
  2  4  1  0
  2  5  1  0
  5  6  1  0
  5  7  1  0
  5  8  1  0
  8  9  1  0
  9 10  1  0
 10 11  1  0
 11 12  2  0
 11 13  1  0
 13 14  1  0
 14 15  1  0
 15 16  2  0
 15 17  1  0
 17 18  1  0
 18 19  1  0
 19 20  2  0
 19 21  1  0
 13 22  1  0
 22 23  1  0
 23 24  2  0
 24 25  1  0
 25 26  2  0
 26 27  1  0
 26 28  1  0
 28 29  2  0
 29 23  1  0
M  END
$$$$
s_8____5534988____2563044
     RDKit          3D

 20 20  0  0  0  0  0  0  0  0999 V2000
    0.1750   -0.4289    1.0000 S   0  0  0  0  0  0  0  0  0  0  0  0
    1.0000    1.0000    1.0000 C   0  0  0  0  0  0  0  0  0  0  0  0
    2.3700    1.0000    1.0000 N   0  0  0  0  0  0  0  0  0  0  0  0
    3.1050    2.2731    1.0000 C   0  0  0  0  0  0  0  0  0  0  0  0
    3.1428    2.8364    2.4116 C   0  0  0  0  0  0  0  0  0  0  0  0
    4.1906    2.4967    3.2612 C   0  0  0  0  0  0  0  0  0  0  0  0
    4.2209    3.0137    4.5523 C   0  0  0  0  0  0  0  0  0  0  0  0
    3.2091    3.8646    4.9847 C   0  0  0  0  0  0  0  0  0  0  0  0
    2.1678    4.1974    4.1272 C   0  0  0  0  0  0  0  0  0  0  0  0
    2.1257    3.6865    2.8340 C   0  0  0  0  0  0  0  0  0  0  0  0
    3.1050   -0.2731    1.0000 C   0  0  0  0  0  0  0  0  0  0  0  0
    3.5738   -0.5874   -0.4113 C   0  0  0  0  0  0  0  0  0  0  0  0
    2.4490   -0.6903   -1.2719 O   0  0  0  0  0  0  0  0  0  0  0  0
    4.3338   -1.9038   -0.4113 C   0  0  0  0  0  0  0  0  0  0  0  0
    0.3150    2.1865    1.0000 N   0  0  0  0  0  0  0  0  0  0  0  0
   -1.1550    2.1865    1.0000 C   0  0  0  0  0  0  0  0  0  0  0  0
   -1.6617    3.6195    1.0000 C   0  0  0  0  0  0  0  0  0  0  0  0
   -2.9917    3.6195    1.0000 F   0  0  0  0  0  0  0  0  0  0  0  0
   -1.2183    4.2465    2.0859 F   0  0  0  0  0  0  0  0  0  0  0  0
   -1.2183    4.2465   -0.0859 F   0  0  0  0  0  0  0  0  0  0  0  0
  1  2  2  0
  2  3  1  0
  3  4  1  0
  4  5  1  0
  5  6  2  0
  6  7  1  0
  7  8  2  0
  8  9  1  0
  9 10  2  0
 10  5  1  0
  3 11  1  0
 11 12  1  0
 12 13  1  0
 12 14  1  0
  2 15  1  0
 15 16  1  0
 16 17  1  0
 17 18  1  0
 17 19  1  0
 17 20  1  0
M  END
$$$$
s_269946a____7297346____17513468
     RDKit          3D

 21 21  0  0  0  0  0  0  0  0999 V2000
   -1.8633   -1.0035    3.2343 O   0  0  0  0  0  0  0  0  0  0  0  0
   -1.6617   -0.4331    2.1865 C   0  0  0  0  0  0  0  0  0  0  0  0
   -1.8700   -1.0223    1.1039 O   0  0  0  0  0  0  0  0  0  0  0  0
   -1.1550    1.0000    2.1865 C   0  0  0  0  0  0  0  0  0  0  0  0
    0.3150    1.0000    2.1865 N   0  0  0  0  0  0  0  0  0  0  0  0
    1.0000    1.0000    1.0000 C   0  0  0  0  0  0  0  0  0  0  0  0
    0.4000    1.0000   -0.0392 O   0  0  0  0  0  0  0  0  0  0  0  0
    2.5200    1.0000    1.0000 C   0  0  0  0  0  0  0  0  0  0  0  0
    3.0100    1.6930   -0.2002 N   0  0  0  0  0  0  0  0  0  0  0  0
    3.2383    3.0434   -0.1663 C   0  0  0  0  0  0  0  0  0  0  0  0
    3.0383    3.6605    0.8432 O   0  0  0  0  0  0  0  0  0  0  0  0
    3.7450    3.7599   -1.4074 C   0  0  0  0  0  0  0  0  0  0  0  0
    3.0267   -0.4331    1.0000 C   0  0  0  0  0  0  0  0  0  0  0  0
    4.5467   -0.4331    1.0000 C   0  0  0  0  0  0  0  0  0  0  0  0
    5.2311   -0.4331    2.2110 C   0  0  0  0  0  0  0  0  0  0  0  0
    6.6219   -0.4338    2.2159 C   0  0  0  0  0  0  0  0  0  0  0  0
    7.3116   -0.4351    1.0075 C   0  0  0  0  0  0  0  0  0  0  0  0
    8.7316   -0.4355    1.0077 O   0  0  0  0  0  0  0  0  0  0  0  0
    6.6320   -0.4347   -0.2063 C   0  0  0  0  0  0  0  0  0  0  0  0
    5.2412   -0.4344   -0.2053 C   0  0  0  0  0  0  0  0  0  0  0  0
    1.0500    1.0000    3.4595 C   0  0  0  0  0  0  0  0  0  0  0  0
  1  2  1  0
  2  3  2  0
  2  4  1  0
  4  5  1  0
  5  6  1  0
  6  7  2  0
  6  8  1  0
  8  9  1  0
  9 10  1  0
 10 11  2  0
 10 12  1  0
  8 13  1  0
 13 14  1  0
 14 15  2  0
 15 16  1  0
 16 17  2  0
 17 18  1  0
 17 19  1  0
 19 20  2  0
 20 14  1  0
  5 21  1  0
M  CHG  1   1  -1
M  END
$$$$
EN300-09603
     RDKit          3D

 16 16  0  0  0  0  0  0  0  0999 V2000
   -1.7983   -0.6782    2.1865 Cl  0  0  0  0  0  0  0  0  0  0  0  0
   -1.2050    1.0000    2.1865 C   0  0  0  0  0  0  0  0  0  0  0  0
    0.3150    1.0000    2.1865 C   0  0  0  0  0  0  0  0  0  0  0  0
    0.9150    1.0000    3.2257 O   0  0  0  0  0  0  0  0  0  0  0  0
    1.0000    1.0000    1.0000 N   0  0  0  0  0  0  0  0  0  0  0  0
    2.4700    1.0000    1.0000 C   0  0  0  0  0  0  0  0  0  0  0  0
    2.9767    2.2411    0.2835 C   0  0  0  0  0  0  0  0  0  0  0  0
    3.9272    2.8352    0.7118 O   0  0  0  0  0  0  0  0  0  0  0  0
    2.2793    2.7296   -0.9756 C   0  0  0  0  0  0  0  0  0  0  0  0
    2.9767   -0.2411    0.2835 C   0  0  0  0  0  0  0  0  0  0  0  0
    4.4970   -0.2411    0.2835 C   0  0  0  0  0  0  0  0  0  0  0  0
    5.1860   -0.8453    1.3299 C   0  0  0  0  0  0  0  0  0  0  0  0
    6.5771   -0.8423    1.3265 C   0  0  0  0  0  0  0  0  0  0  0  0
    7.2687   -0.2393    0.2811 C   0  0  0  0  0  0  0  0  0  0  0  0
    6.5699    0.3607   -0.7592 C   0  0  0  0  0  0  0  0  0  0  0  0
    5.1789    0.3650   -0.7670 C   0  0  0  0  0  0  0  0  0  0  0  0
  1  2  1  0
  2  3  1  0
  3  4  2  0
  3  5  1  0
  5  6  1  0
  6  7  1  0
  7  8  2  0
  7  9  1  0
  6 10  1  0
 10 11  1  0
 11 12  2  0
 12 13  1  0
 13 14  2  0
 14 15  1  0
 15 16  2  0
 16 11  1  0
M  END
$$$$
s_276436a____14085676____17513464
     RDKit          3D

 23 23  0  0  0  0  0  0  0  0999 V2000
    2.4833   -1.0600    2.0859 F   0  0  0  0  0  0  0  0  0  0  0  0
    2.9267   -0.4331    1.0000 C   0  0  0  0  0  0  0  0  0  0  0  0
    2.4833   -1.0600   -0.0859 F   0  0  0  0  0  0  0  0  0  0  0  0
    2.4200    1.0000    1.0000 C   0  0  0  0  0  0  0  0  0  0  0  0
    1.0000    1.0000    1.0000 O   0  0  0  0  0  0  0  0  0  0  0  0
    0.3450    1.0000    2.1345 C   0  0  0  0  0  0  0  0  0  0  0  0
    0.9450    1.0000    3.1737 O   0  0  0  0  0  0  0  0  0  0  0  0
   -1.1750    1.0000    2.1345 C   0  0  0  0  0  0  0  0  0  0  0  0
   -1.6650    1.0000    3.5204 N   0  0  0  0  0  0  0  0  0  0  0  0
   -2.4526    2.0275    3.9685 C   0  0  0  0  0  0  0  0  0  0  0  0
   -2.7425    2.9275    3.2296 O   0  0  0  0  0  0  0  0  0  0  0  0
   -2.9593    2.0275    5.4016 C   0  0  0  0  0  0  0  0  0  0  0  0
   -1.6817   -0.2411    1.4180 C   0  0  0  0  0  0  0  0  0  0  0  0
   -3.2017   -0.2411    1.4180 C   0  0  0  0  0  0  0  0  0  0  0  0
   -3.8861    0.3644    0.3692 C   0  0  0  0  0  0  0  0  0  0  0  0
   -5.2769    0.3662    0.3646 C   0  0  0  0  0  0  0  0  0  0  0  0
   -5.9666   -0.2391    1.4104 C   0  0  0  0  0  0  0  0  0  0  0  0
   -7.3164   -0.2393    1.4101 O   0  0  0  0  0  0  0  0  0  0  0  0
   -5.2870   -0.8457    2.4618 C   0  0  0  0  0  0  0  0  0  0  0  0
   -3.8962   -0.8449    2.4611 C   0  0  0  0  0  0  0  0  0  0  0  0
    4.4467   -0.4331    1.0000 C   0  0  0  0  0  0  0  0  0  0  0  0
    4.9533   -1.8661    1.0000 C   0  0  0  0  0  0  0  0  0  0  0  0
    5.7007   -2.2913    0.0250 C   0  0  0  0  0  0  0  0  0  0  0  0
  1  2  1  0
  2  3  1  0
  2  4  1  0
  4  5  1  0
  5  6  1  0
  6  7  2  0
  6  8  1  0
  8  9  1  0
  9 10  1  0
 10 11  2  0
 10 12  1  0
  8 13  1  0
 13 14  1  0
 14 15  2  0
 15 16  1  0
 16 17  2  0
 17 18  1  0
 17 19  1  0
 19 20  2  0
 20 14  1  0
  2 21  1  0
 21 22  1  0
 22 23  2  0
M  END
$$$$
s_276436a____16913726____17513464
     RDKit          3D

 23 23  0  0  0  0  0  0  0  0999 V2000
    2.4833   -1.0600    2.0859 F   0  0  0  0  0  0  0  0  0  0  0  0
    2.9267   -0.4331    1.0000 C   0  0  0  0  0  0  0  0  0  0  0  0
    2.4833   -1.0600   -0.0859 F   0  0  0  0  0  0  0  0  0  0  0  0
    2.4200    1.0000    1.0000 C   0  0  0  0  0  0  0  0  0  0  0  0
    1.0000    1.0000    1.0000 O   0  0  0  0  0  0  0  0  0  0  0  0
    0.3450    1.0000    2.1345 C   0  0  0  0  0  0  0  0  0  0  0  0
    0.9450    1.0000    3.1737 O   0  0  0  0  0  0  0  0  0  0  0  0
   -1.1750    1.0000    2.1345 C   0  0  0  0  0  0  0  0  0  0  0  0
   -1.6650    1.0000    3.5204 N   0  0  0  0  0  0  0  0  0  0  0  0
   -2.4526    2.0275    3.9685 C   0  0  0  0  0  0  0  0  0  0  0  0
   -2.7425    2.9275    3.2296 O   0  0  0  0  0  0  0  0  0  0  0  0
   -2.9593    2.0275    5.4016 C   0  0  0  0  0  0  0  0  0  0  0  0
   -1.6817   -0.2411    1.4180 C   0  0  0  0  0  0  0  0  0  0  0  0
   -3.2017   -0.2411    1.4180 C   0  0  0  0  0  0  0  0  0  0  0  0
   -3.8861    0.3644    0.3692 C   0  0  0  0  0  0  0  0  0  0  0  0
   -5.2769    0.3662    0.3646 C   0  0  0  0  0  0  0  0  0  0  0  0
   -5.9666   -0.2391    1.4104 C   0  0  0  0  0  0  0  0  0  0  0  0
   -7.3164   -0.2393    1.4101 O   0  0  0  0  0  0  0  0  0  0  0  0
   -5.2870   -0.8457    2.4618 C   0  0  0  0  0  0  0  0  0  0  0  0
   -3.8962   -0.8449    2.4611 C   0  0  0  0  0  0  0  0  0  0  0  0
    4.4467   -0.4331    1.0000 C   0  0  0  0  0  0  0  0  0  0  0  0
    4.9200   -1.7719    1.0000 O   0  0  0  0  0  0  0  0  0  0  0  0
    6.3400   -1.7719    1.0000 C   0  0  0  0  0  0  0  0  0  0  0  0
  1  2  1  0
  2  3  1  0
  2  4  1  0
  4  5  1  0
  5  6  1  0
  6  7  2  0
  6  8  1  0
  8  9  1  0
  9 10  1  0
 10 11  2  0
 10 12  1  0
  8 13  1  0
 13 14  1  0
 14 15  2  0
 15 16  1  0
 16 17  2  0
 17 18  1  0
 17 19  1  0
 19 20  2  0
 20 14  1  0
  2 21  1  0
 21 22  1  0
 22 23  1  0
M  END
$$$$
s_2430a____11944322____8963102
     RDKit          3D

 25 25  0  0  0  0  0  0  0  0999 V2000
    0.3891   -4.0175    4.2678 Br  0  0  0  0  0  0  0  0  0  0  0  0
    0.3079   -2.0597    4.2323 C   0  0  0  0  0  0  0  0  0  0  0  0
    0.0403   -1.4039    3.0357 C   0  0  0  0  0  0  0  0  0  0  0  0
   -0.0133   -0.0135    3.0269 C   0  0  0  0  0  0  0  0  0  0  0  0
    0.1960    0.7187    4.1906 C   0  0  0  0  0  0  0  0  0  0  0  0
    0.4629    0.0425    5.3766 C   0  0  0  0  0  0  0  0  0  0  0  0
    0.5208   -1.3468    5.4074 C   0  0  0  0  0  0  0  0  0  0  0  0
   -0.3059    0.7075    1.7208 C   0  0  0  0  0  0  0  0  0  0  0  0
    1.0000    1.0000    1.0000 C   0  0  0  0  0  0  0  0  0  0  0  0
    1.8487    1.8487    1.8487 N   0  0  0  0  0  0  0  0  0  0  0  0
    3.0831    1.4052    2.2442 C   0  0  0  0  0  0  0  0  0  0  0  0
    3.4716    0.3240    1.8978 O   0  0  0  0  0  0  0  0  0  0  0  0
    3.8741    2.1962    3.0352 N   0  0  0  0  0  0  0  0  0  0  0  0
    5.1986    1.7204    3.4595 C   0  0  0  0  0  0  0  0  0  0  0  0
    5.8650    2.7796    4.3223 C   0  0  0  0  0  0  0  0  0  0  0  0
    7.0634    2.3491    4.7062 F   0  0  0  0  0  0  0  0  0  0  0  0
    6.0007    3.9016    3.6211 F   0  0  0  0  0  0  0  0  0  0  0  0
    5.1141    3.0149    5.3945 F   0  0  0  0  0  0  0  0  0  0  0  0
    5.0436    0.4381    4.2608 C   0  0  0  0  0  0  0  0  0  0  0  0
    6.0569    1.4514    2.2342 C   0  0  0  0  0  0  0  0  0  0  0  0
    0.7075    1.7208   -0.3059 C   0  0  0  0  0  0  0  0  0  0  0  0
   -0.1124    0.9010   -1.1257 O   0  0  0  0  0  0  0  0  0  0  0  0
   -0.3856    1.5744   -2.3456 C   0  0  0  0  0  0  0  0  0  0  0  0
   -1.6532    2.3997   -2.1959 C   0  0  0  0  0  0  0  0  0  0  0  0
   -1.9458    3.1205   -3.5017 C   0  0  0  0  0  0  0  0  0  0  0  0
  1  2  1  0
  2  3  2  0
  3  4  1  0
  4  5  2  0
  5  6  1  0
  6  7  2  0
  7  2  1  0
  4  8  1  0
  8  9  1  0
  9 10  1  0
 10 11  1  0
 11 12  2  0
 11 13  1  0
 13 14  1  0
 14 15  1  0
 15 16  1  0
 15 17  1  0
 15 18  1  0
 14 19  1  0
 14 20  1  0
  9 21  1  0
 21 22  1  0
 22 23  1  0
 23 24  1  0
 24 25  1  0
M  END
$$$$
s_22____12206138____8850186
     RDKit          3D

 24 24  0  0  0  0  0  0  0  0999 V2000
   -3.6807    2.6142   -0.0859 F   0  0  0  0  0  0  0  0  0  0  0  0
   -3.3594    3.3117    1.0000 C   0  0  0  0  0  0  0  0  0  0  0  0
   -3.6807    2.6142    2.0859 F   0  0  0  0  0  0  0  0  0  0  0  0
   -4.0244    4.4635    1.0000 F   0  0  0  0  0  0  0  0  0  0  0  0
   -1.8650    3.5894    1.0000 C   0  0  0  0  0  0  0  0  0  0  0  0
   -1.1300    2.3164    1.0000 N   0  0  0  0  0  0  0  0  0  0  0  0
    0.2400    2.3164    1.0000 C   0  0  0  0  0  0  0  0  0  0  0  0
    0.8400    3.3556    1.0000 O   0  0  0  0  0  0  0  0  0  0  0  0
    1.0000    1.0000    1.0000 C   0  0  0  0  0  0  0  0  0  0  0  0
    0.4000   -0.0392    1.0000 O   0  0  0  0  0  0  0  0  0  0  0  0
    2.3700    1.0000    1.0000 N   0  0  0  0  0  0  0  0  0  0  0  0
    3.1050   -0.2731    1.0000 C   0  0  0  0  0  0  0  0  0  0  0  0
    3.9789   -0.3536    2.2411 C   0  0  0  0  0  0  0  0  0  0  0  0
    4.0832   -1.3910    2.8352 O   0  0  0  0  0  0  0  0  0  0  0  0
    4.6181    0.7095    2.6621 O   0  0  0  0  0  0  0  0  0  0  0  0
    5.4345    0.6343    3.8216 C   0  0  0  0  0  0  0  0  0  0  0  0
    3.9789   -0.3536   -0.2411 C   0  0  0  0  0  0  0  0  0  0  0  0
    4.7391   -1.6703   -0.2411 C   0  0  0  0  0  0  0  0  0  0  0  0
    4.1830   -2.7945   -0.8436 C   0  0  0  0  0  0  0  0  0  0  0  0
    2.9692   -2.7337   -1.4322 O   0  0  0  0  0  0  0  0  0  0  0  0
    4.8786   -3.9995   -0.8435 C   0  0  0  0  0  0  0  0  0  0  0  0
    6.1304   -4.0800   -0.2412 C   0  0  0  0  0  0  0  0  0  0  0  0
    6.6863   -2.9555    0.3606 C   0  0  0  0  0  0  0  0  0  0  0  0
    5.9908   -1.7507    0.3600 C   0  0  0  0  0  0  0  0  0  0  0  0
  1  2  1  0
  2  3  1  0
  2  4  1  0
  2  5  1  0
  5  6  1  0
  6  7  1  0
  7  8  2  0
  7  9  1  0
  9 10  2  0
  9 11  1  0
 11 12  1  0
 12 13  1  0
 13 14  2  0
 13 15  1  0
 15 16  1  0
 12 17  1  0
 17 18  1  0
 18 19  2  0
 19 20  1  0
 19 21  1  0
 21 22  2  0
 22 23  1  0
 23 24  2  0
 24 18  1  0
M  END
$$$$
s_2430a____11944322____11756930
     RDKit          3D

 19 19  0  0  0  0  0  0  0  0999 V2000
    4.9207    0.7021   -0.0859 F   0  0  0  0  0  0  0  0  0  0  0  0
    4.5994    0.0047    1.0000 C   0  0  0  0  0  0  0  0  0  0  0  0
    4.9207    0.7021    2.0859 F   0  0  0  0  0  0  0  0  0  0  0  0
    5.2644   -1.1471    1.0000 F   0  0  0  0  0  0  0  0  0  0  0  0
    3.1050   -0.2731    1.0000 C   0  0  0  0  0  0  0  0  0  0  0  0
    2.3700    1.0000    1.0000 N   0  0  0  0  0  0  0  0  0  0  0  0
    1.0000    1.0000    1.0000 C   0  0  0  0  0  0  0  0  0  0  0  0
    0.4000   -0.0392    1.0000 O   0  0  0  0  0  0  0  0  0  0  0  0
    0.3150    2.1865    1.0000 N   0  0  0  0  0  0  0  0  0  0  0  0
   -1.0844    2.1865    1.0000 C   0  0  0  0  0  0  0  0  0  0  0  0
   -1.7603    2.1865   -0.2158 C   0  0  0  0  0  0  0  0  0  0  0  0
   -3.1511    2.1857   -0.2097 C   0  0  0  0  0  0  0  0  0  0  0  0
   -3.8257    2.1844   -1.3801 O   0  0  0  0  0  0  0  0  0  0  0  0
   -3.8577    2.1828    0.9875 C   0  0  0  0  0  0  0  0  0  0  0  0
   -3.1700    2.1818    2.1959 C   0  0  0  0  0  0  0  0  0  0  0  0
   -1.7797    2.1854    2.2048 C   0  0  0  0  0  0  0  0  0  0  0  0
    1.0500    3.4595    1.0000 C   0  0  0  0  0  0  0  0  0  0  0  0
    2.7378   -1.0701    2.2411 C   0  0  0  0  0  0  0  0  0  0  0  0
    2.7378   -1.0701   -0.2411 C   0  0  0  0  0  0  0  0  0  0  0  0
  1  2  1  0
  2  3  1  0
  2  4  1  0
  2  5  1  0
  5  6  1  0
  6  7  1  0
  7  8  2  0
  7  9  1  0
  9 10  1  0
 10 11  2  0
 11 12  1  0
 12 13  1  0
 12 14  2  0
 14 15  1  0
 15 16  2  0
 16 10  1  0
  9 17  1  0
  5 18  1  0
  5 19  1  0
M  END
$$$$
s_22____10954494____12624298
     RDKit          3D

 21 21  0  0  0  0  0  0  0  0999 V2000
   -4.9718    1.6148    2.2810 Br  0  0  0  0  0  0  0  0  0  0  0  0
   -3.5064    1.7632    0.9881 C   0  0  0  0  0  0  0  0  0  0  0  0
   -2.2091    1.9780    1.4403 C   0  0  0  0  0  0  0  0  0  0  0  0
   -1.1798    2.0818    0.5098 C   0  0  0  0  0  0  0  0  0  0  0  0
   -1.4333    1.9740   -0.8534 C   0  0  0  0  0  0  0  0  0  0  0  0
   -2.7384    1.7598   -1.2841 C   0  0  0  0  0  0  0  0  0  0  0  0
   -3.7819    1.6529   -0.3707 C   0  0  0  0  0  0  0  0  0  0  0  0
    0.2400    2.3164    1.0000 C   0  0  0  0  0  0  0  0  0  0  0  0
    0.9144    3.2716    0.1091 N   0  0  0  0  0  0  0  0  0  0  0  0
    1.3899    4.4555    0.6082 C   0  0  0  0  0  0  0  0  0  0  0  0
    1.2557    4.7128    1.7726 O   0  0  0  0  0  0  0  0  0  0  0  0
    2.0873    5.4432   -0.3129 C   0  0  0  0  0  0  0  0  0  0  0  0
    1.0000    1.0000    1.0000 C   0  0  0  0  0  0  0  0  0  0  0  0
    0.4000   -0.0392    1.0000 O   0  0  0  0  0  0  0  0  0  0  0  0
    2.3700    1.0000    1.0000 N   0  0  0  0  0  0  0  0  0  0  0  0
    3.0615   -0.1977    1.0000 N   0  0  0  0  0  0  0  0  0  0  0  0
    3.4040   -0.7909   -0.1865 C   0  0  0  0  0  0  0  0  0  0  0  0
    2.9915   -0.0765   -1.6154 S   0  0  0  0  0  0  0  0  0  0  0  0
    4.0890   -1.9774   -0.1865 N   0  0  0  0  0  0  0  0  0  0  0  0
    4.4565   -2.6139   -1.4595 C   0  0  0  0  0  0  0  0  0  0  0  0
    3.4290   -0.8342    2.2731 C   0  0  0  0  0  0  0  0  0  0  0  0
  1  2  1  0
  2  3  2  0
  3  4  1  0
  4  5  2  0
  5  6  1  0
  6  7  2  0
  7  2  1  0
  4  8  1  0
  8  9  1  0
  9 10  1  0
 10 11  2  0
 10 12  1  0
  8 13  1  0
 13 14  2  0
 13 15  1  0
 15 16  1  0
 16 17  1  0
 17 18  2  0
 17 19  1  0
 19 20  1  0
 16 21  1  0
M  END
$$$$
s_270062____16436390____15585492
     RDKit          3D

 17 17  0  0  0  0  0  0  0  0999 V2000
    5.1263   -1.3628    5.1136 F   0  0  0  0  0  0  0  0  0  0  0  0
    4.3588   -0.5956    4.3441 C   0  0  0  0  0  0  0  0  0  0  0  0
    4.8138   -0.1972    3.0913 C   0  0  0  0  0  0  0  0  0  0  0  0
    4.0061    0.6058    2.2926 C   0  0  0  0  0  0  0  0  0  0  0  0
    2.7550    1.0001    2.7550 C   0  0  0  0  0  0  0  0  0  0  0  0
    2.3051    0.5984    4.0081 C   0  0  0  0  0  0  0  0  0  0  0  0
    3.1081   -0.2048    4.8109 C   0  0  0  0  0  0  0  0  0  0  0  0
    1.8776    1.8776    1.8776 C   0  0  0  0  0  0  0  0  0  0  0  0
    1.0000    1.0000    1.0000 C   0  0  0  0  0  0  0  0  0  0  0  0
    1.8487    0.1513    0.1513 N   0  0  0  0  0  0  0  0  0  0  0  0
    1.7598   -1.2129    0.2402 C   0  0  0  0  0  0  0  0  0  0  0  0
    0.9891   -1.7150    1.0109 O   0  0  0  0  0  0  0  0  0  0  0  0
    2.6374   -2.0905   -0.6374 C   0  0  0  0  0  0  0  0  0  0  0  0
    0.1224    1.8776    0.1224 C   0  0  0  0  0  0  0  0  0  0  0  0
    0.9423    2.6974   -0.6974 O   0  0  0  0  0  0  0  0  0  0  0  0
   -0.7551    1.0000   -0.7551 C   0  0  0  0  0  0  0  0  0  0  0  0
   -0.7551    2.7551    1.0000 C   0  0  0  0  0  0  0  0  0  0  0  0
  1  2  1  0
  2  3  2  0
  3  4  1  0
  4  5  2  0
  5  6  1  0
  6  7  2  0
  7  2  1  0
  5  8  1  0
  8  9  1  0
  9 10  1  0
 10 11  1  0
 11 12  2  0
 11 13  1  0
  9 14  1  0
 14 15  1  0
 14 16  1  0
 14 17  1  0
M  END
$$$$
s_22____12635594____12525624
     RDKit          3D

 22 22  0  0  0  0  0  0  0  0999 V2000
   -2.4610    2.4562    5.6726 Br  0  0  0  0  0  0  0  0  0  0  0  0
   -2.3455    2.1467    3.7406 C   0  0  0  0  0  0  0  0  0  0  0  0
   -1.1288    2.3142    3.0886 C   0  0  0  0  0  0  0  0  0  0  0  0
   -1.0634    2.0913    1.7167 C   0  0  0  0  0  0  0  0  0  0  0  0
   -2.1909    1.7068    0.9991 C   0  0  0  0  0  0  0  0  0  0  0  0
   -3.3982    1.5455    1.6710 C   0  0  0  0  0  0  0  0  0  0  0  0
   -3.4853    1.7632    3.0420 C   0  0  0  0  0  0  0  0  0  0  0  0
    0.2650    2.2731    1.0000 C   0  0  0  0  0  0  0  0  0  0  0  0
    1.0000    1.0000    1.0000 N   0  0  0  0  0  0  0  0  0  0  0  0
    2.3700    1.0000    1.0000 C   0  0  0  0  0  0  0  0  0  0  0  0
    2.9700    2.0392    1.0000 O   0  0  0  0  0  0  0  0  0  0  0  0
    3.1300   -0.3164    1.0000 C   0  0  0  0  0  0  0  0  0  0  0  0
    3.3833   -0.7551   -0.4331 C   0  0  0  0  0  0  0  0  0  0  0  0
    2.2212   -0.9142   -1.0600 F   0  0  0  0  0  0  0  0  0  0  0  0
    4.1021    0.1718   -1.0600 F   0  0  0  0  0  0  0  0  0  0  0  0
    4.1433   -2.0715   -0.4331 C   0  0  0  0  0  0  0  0  0  0  0  0
    4.3650   -2.4554   -1.6870 F   0  0  0  0  0  0  0  0  0  0  0  0
    5.3055   -1.9125    0.1939 F   0  0  0  0  0  0  0  0  0  0  0  0
    3.4245   -2.9984    0.1939 F   0  0  0  0  0  0  0  0  0  0  0  0
    0.0117    2.7118   -0.4331 C   0  0  0  0  0  0  0  0  0  0  0  0
   -0.6983    3.9416   -0.4331 O   0  0  0  0  0  0  0  0  0  0  0  0
   -0.9350    4.3515   -1.7719 C   0  0  0  0  0  0  0  0  0  0  0  0
  1  2  1  0
  2  3  2  0
  3  4  1  0
  4  5  2  0
  5  6  1  0
  6  7  2  0
  7  2  1  0
  4  8  1  0
  8  9  1  0
  9 10  1  0
 10 11  2  0
 10 12  1  0
 12 13  1  0
 13 14  1  0
 13 15  1  0
 13 16  1  0
 16 17  1  0
 16 18  1  0
 16 19  1  0
  8 20  1  0
 20 21  1  0
 21 22  1  0
M  END
$$$$
s_22____12206138____13027156
     RDKit          3D

 23 23  0  0  0  0  0  0  0  0999 V2000
    4.9457    0.6588   -0.0859 F   0  0  0  0  0  0  0  0  0  0  0  0
    4.6244   -0.0386    1.0000 C   0  0  0  0  0  0  0  0  0  0  0  0
    4.9457    0.6588    2.0859 F   0  0  0  0  0  0  0  0  0  0  0  0
    5.3844   -1.3550    1.0000 C   0  0  0  0  0  0  0  0  0  0  0  0
    6.6920   -1.1119    1.0000 F   0  0  0  0  0  0  0  0  0  0  0  0
    5.0631   -2.0524    2.0859 F   0  0  0  0  0  0  0  0  0  0  0  0
    3.1300   -0.3164    1.0000 C   0  0  0  0  0  0  0  0  0  0  0  0
    2.3700    1.0000    1.0000 C   0  0  0  0  0  0  0  0  0  0  0  0
    2.9700    2.0392    1.0000 O   0  0  0  0  0  0  0  0  0  0  0  0
    1.0000    1.0000    1.0000 N   0  0  0  0  0  0  0  0  0  0  0  0
    0.2650    2.2731    1.0000 C   0  0  0  0  0  0  0  0  0  0  0  0
   -0.6089    2.3536    2.2411 C   0  0  0  0  0  0  0  0  0  0  0  0
   -1.7152    2.8125    2.1672 O   0  0  0  0  0  0  0  0  0  0  0  0
   -0.1543    1.9220    3.3914 O   0  0  0  0  0  0  0  0  0  0  0  0
   -0.9706    1.9972    4.5508 C   0  0  0  0  0  0  0  0  0  0  0  0
   -0.6089    2.3536   -0.2411 C   0  0  0  0  0  0  0  0  0  0  0  0
    0.2653    2.2730   -1.4825 C   0  0  0  0  0  0  0  0  0  0  0  0
    0.7757    3.4362   -2.0504 C   0  0  0  0  0  0  0  0  0  0  0  0
    0.5041    4.6446   -1.5123 O   0  0  0  0  0  0  0  0  0  0  0  0
    1.5754    3.3626   -3.1866 C   0  0  0  0  0  0  0  0  0  0  0  0
    1.8651    2.1256   -3.7543 C   0  0  0  0  0  0  0  0  0  0  0  0
    1.3550    0.9627   -3.1857 C   0  0  0  0  0  0  0  0  0  0  0  0
    0.5557    1.0366   -2.0496 C   0  0  0  0  0  0  0  0  0  0  0  0
  1  2  1  0
  2  3  1  0
  2  4  1  0
  4  5  1  0
  4  6  1  0
  2  7  1  0
  7  8  1  0
  8  9  2  0
  8 10  1  0
 10 11  1  0
 11 12  1  0
 12 13  2  0
 12 14  1  0
 14 15  1  0
 11 16  1  0
 16 17  1  0
 17 18  2  0
 18 19  1  0
 18 20  1  0
 20 21  2  0
 21 22  1  0
 22 23  2  0
 23 17  1  0
M  END
$$$$
s_2430a____10229206____9298134
     RDKit          3D

 24 25  0  0  0  0  0  0  0  0999 V2000
    6.3617   -0.9030    2.2411 F   0  0  0  0  0  0  0  0  0  0  0  0
    5.0317   -0.9030    2.2411 C   0  0  0  0  0  0  0  0  0  0  0  0
    4.5883   -0.2760    3.3270 F   0  0  0  0  0  0  0  0  0  0  0  0
    4.5883   -2.1569    2.2411 F   0  0  0  0  0  0  0  0  0  0  0  0
    4.5250   -0.1865    1.0000 C   0  0  0  0  0  0  0  0  0  0  0  0
    3.0550   -0.1865    1.0000 N   0  0  0  0  0  0  0  0  0  0  0  0
    2.3700    1.0000    1.0000 C   0  0  0  0  0  0  0  0  0  0  0  0
    2.9700    2.0392    1.0000 O   0  0  0  0  0  0  0  0  0  0  0  0
    1.0000    1.0000    1.0000 N   0  0  0  0  0  0  0  0  0  0  0  0
    0.2650    2.2731    1.0000 C   0  0  0  0  0  0  0  0  0  0  0  0
   -0.6089    2.3536   -0.2411 C   0  0  0  0  0  0  0  0  0  0  0  0
   -0.7132    3.3910   -0.8352 O   0  0  0  0  0  0  0  0  0  0  0  0
   -1.2774    1.2418   -0.6814 N   0  0  0  0  0  0  0  0  0  0  0  0
   -2.1225    1.3197   -1.8817 C   0  0  0  0  0  0  0  0  0  0  0  0
   -0.6089    2.3536    2.2411 C   0  0  0  0  0  0  0  0  0  0  0  0
   -1.3690    3.6702    2.2411 C   0  0  0  0  0  0  0  0  0  0  0  0
   -2.6198    3.7437    1.6369 C   0  0  0  0  0  0  0  0  0  0  0  0
   -3.3116    4.9506    1.6384 C   0  0  0  0  0  0  0  0  0  0  0  0
   -2.7525    6.0720    2.2423 C   0  0  0  0  0  0  0  0  0  0  0  0
   -1.5027    5.9867    2.8431 C   0  0  0  0  0  0  0  0  0  0  0  0
   -0.8006    4.7858    2.8477 C   0  0  0  0  0  0  0  0  0  0  0  0
    5.0319   -0.9033   -0.2416 C   0  0  0  0  0  0  0  0  0  0  0  0
    4.5504   -0.2224   -1.4894 C   0  0  0  0  0  0  0  0  0  0  0  0
    3.9199   -1.5116   -1.0468 C   0  0  0  0  0  0  0  0  0  0  0  0
  1  2  1  0
  2  3  1  0
  2  4  1  0
  2  5  1  0
  5  6  1  0
  6  7  1  0
  7  8  2  0
  7  9  1  0
  9 10  1  0
 10 11  1  0
 11 12  2  0
 11 13  1  0
 13 14  1  0
 10 15  1  0
 15 16  1  0
 16 17  2  0
 17 18  1  0
 18 19  2  0
 19 20  1  0
 20 21  2  0
 21 16  1  0
  5 22  1  0
 22 23  1  0
 23 24  1  0
 24 22  1  0
M  END
$$$$
s_22____11619952____58844
     RDKit          3D

 21 21  0  0  0  0  0  0  0  0999 V2000
   -0.6990   -3.9905   -4.0065 F   0  0  0  0  0  0  0  0  0  0  0  0
   -1.4687   -3.2245   -3.2385 C   0  0  0  0  0  0  0  0  0  0  0  0
   -2.2358   -3.9942   -2.4717 F   0  0  0  0  0  0  0  0  0  0  0  0
   -2.2374   -2.4573   -4.0063 F   0  0  0  0  0  0  0  0  0  0  0  0
   -0.5931   -2.3461   -2.3596 C   0  0  0  0  0  0  0  0  0  0  0  0
   -0.1968   -1.0926   -2.8147 C   0  0  0  0  0  0  0  0  0  0  0  0
    0.6050   -0.2934   -2.0070 C   0  0  0  0  0  0  0  0  0  0  0  0
    0.9998   -0.7553   -0.7553 C   0  0  0  0  0  0  0  0  0  0  0  0
    0.6010   -2.0083   -0.2999 C   0  0  0  0  0  0  0  0  0  0  0  0
   -0.1998   -2.8083   -1.1084 C   0  0  0  0  0  0  0  0  0  0  0  0
    1.8776    0.1224    0.1224 C   0  0  0  0  0  0  0  0  0  0  0  0
    1.0000    1.0000    1.0000 C   0  0  0  0  0  0  0  0  0  0  0  0
    0.1224    1.8776    0.1224 C   0  0  0  0  0  0  0  0  0  0  0  0
   -1.0725    1.7997    0.2003 O   0  0  0  0  0  0  0  0  0  0  0  0
    0.6957    2.7574   -0.7574 N   0  0  0  0  0  0  0  0  0  0  0  0
   -0.1530    3.6061   -1.6061 C   0  0  0  0  0  0  0  0  0  0  0  0
    1.8776    1.8776    1.8776 C   0  0  0  0  0  0  0  0  0  0  0  0
    1.0289    2.7263    2.7263 N   0  0  0  0  0  0  0  0  0  0  0  0
    0.4652    2.2114    3.8639 C   0  0  0  0  0  0  0  0  0  0  0  0
    0.6642    1.0677    4.1675 O   0  0  0  0  0  0  0  0  0  0  0  0
   -0.4124    3.0890    4.7414 C   0  0  0  0  0  0  0  0  0  0  0  0
  1  2  1  0
  2  3  1  0
  2  4  1  0
  2  5  1  0
  5  6  2  0
  6  7  1  0
  7  8  2  0
  8  9  1  0
  9 10  2  0
 10  5  1  0
  8 11  1  0
 11 12  1  0
 12 13  1  0
 13 14  2  0
 13 15  1  0
 15 16  1  0
 12 17  1  0
 17 18  1  0
 18 19  1  0
 19 20  2  0
 19 21  1  0
M  END
$$$$
s_22____8930598____1720042
     RDKit          3D

 22 22  0  0  0  0  0  0  0  0999 V2000
   -0.2210   -2.3520    1.5746 Cl  0  0  0  0  0  0  0  0  0  0  0  0
    0.0446   -1.4029    3.0569 C   0  0  0  0  0  0  0  0  0  0  0  0
   -0.0133   -0.0135    3.0270 C   0  0  0  0  0  0  0  0  0  0  0  0
    0.1959    0.7160    4.1925 C   0  0  0  0  0  0  0  0  0  0  0  0
    0.4627    0.0523    5.3853 C   0  0  0  0  0  0  0  0  0  0  0  0
    0.5199   -1.3369    5.4094 C   0  0  0  0  0  0  0  0  0  0  0  0
    0.3117   -2.0721    4.2469 C   0  0  0  0  0  0  0  0  0  0  0  0
   -0.3059    0.7075    1.7208 C   0  0  0  0  0  0  0  0  0  0  0  0
    1.0000    1.0000    1.0000 C   0  0  0  0  0  0  0  0  0  0  0  0
    1.8487    1.8487    1.8487 N   0  0  0  0  0  0  0  0  0  0  0  0
    3.0831    1.4052    2.2442 C   0  0  0  0  0  0  0  0  0  0  0  0
    3.4716    0.3240    1.8978 O   0  0  0  0  0  0  0  0  0  0  0  0
    3.9607    2.2828    3.1218 C   0  0  0  0  0  0  0  0  0  0  0  0
    5.2666    1.5620    3.4143 C   0  0  0  0  0  0  0  0  0  0  0  0
    5.0106    0.4194    4.0450 F   0  0  0  0  0  0  0  0  0  0  0  0
    5.8973    1.3060    2.2717 F   0  0  0  0  0  0  0  0  0  0  0  0
    6.0344    2.3299    4.1822 F   0  0  0  0  0  0  0  0  0  0  0  0
    0.7075    1.7208   -0.3059 C   0  0  0  0  0  0  0  0  0  0  0  0
   -0.3868    1.6571   -0.7943 O   0  0  0  0  0  0  0  0  0  0  0  0
    1.6499    2.4116   -0.8981 O   0  0  0  0  0  0  0  0  0  0  0  0
    1.3766    3.0850   -2.1180 C   0  0  0  0  0  0  0  0  0  0  0  0
    2.6288    3.8055   -2.5906 C   0  0  0  0  0  0  0  0  0  0  0  0
  1  2  1  0
  2  3  2  0
  3  4  1  0
  4  5  2  0
  5  6  1  0
  6  7  2  0
  7  2  1  0
  3  8  1  0
  8  9  1  0
  9 10  1  0
 10 11  1  0
 11 12  2  0
 11 13  1  0
 13 14  1  0
 14 15  1  0
 14 16  1  0
 14 17  1  0
  9 18  1  0
 18 19  2  0
 18 20  1  0
 20 21  1  0
 21 22  1  0
M  END
$$$$
s_22____9870234____17513450
     RDKit          3D

 23 24  0  0  0  0  0  0  0  0999 V2000
   -2.1604   -2.3434    4.9709 O   0  0  0  0  0  0  0  0  0  0  0  0
   -2.2628   -1.6697    3.9832 C   0  0  0  0  0  0  0  0  0  0  0  0
   -1.2108   -1.1375    3.3295 O   0  0  0  0  0  0  0  0  0  0  0  0
   -1.6613   -0.4320    2.1865 C   0  0  0  0  0  0  0  0  0  0  0  0
   -3.1700   -0.4371    2.2550 C   0  0  0  0  0  0  0  0  0  0  0  0
   -3.4763   -1.3346    3.3734 N   0  0  0  0  0  0  0  0  0  0  0  0
   -1.1550    1.0000    2.1865 C   0  0  0  0  0  0  0  0  0  0  0  0
    0.3150    1.0000    2.1865 N   0  0  0  0  0  0  0  0  0  0  0  0
    1.0000    1.0000    1.0000 C   0  0  0  0  0  0  0  0  0  0  0  0
    0.4000    1.0000   -0.0392 O   0  0  0  0  0  0  0  0  0  0  0  0
    2.5200    1.0000    1.0000 C   0  0  0  0  0  0  0  0  0  0  0  0
    3.0100    1.6930   -0.2002 N   0  0  0  0  0  0  0  0  0  0  0  0
    3.2383    3.0434   -0.1663 C   0  0  0  0  0  0  0  0  0  0  0  0
    3.0383    3.6605    0.8432 O   0  0  0  0  0  0  0  0  0  0  0  0
    3.7450    3.7599   -1.4074 C   0  0  0  0  0  0  0  0  0  0  0  0
    3.0267   -0.4331    1.0000 C   0  0  0  0  0  0  0  0  0  0  0  0
    4.5467   -0.4331    1.0000 C   0  0  0  0  0  0  0  0  0  0  0  0
    5.2311   -0.4331    2.2110 C   0  0  0  0  0  0  0  0  0  0  0  0
    6.6219   -0.4338    2.2159 C   0  0  0  0  0  0  0  0  0  0  0  0
    7.3116   -0.4351    1.0075 C   0  0  0  0  0  0  0  0  0  0  0  0
    8.7316   -0.4355    1.0077 O   0  0  0  0  0  0  0  0  0  0  0  0
    6.6320   -0.4347   -0.2063 C   0  0  0  0  0  0  0  0  0  0  0  0
    5.2412   -0.4344   -0.2053 C   0  0  0  0  0  0  0  0  0  0  0  0
  1  2  2  0
  2  3  1  0
  3  4  1  0
  4  5  1  0
  5  6  1  0
  6  2  1  0
  4  7  1  0
  7  8  1  0
  8  9  1  0
  9 10  2  0
  9 11  1  0
 11 12  1  0
 12 13  1  0
 13 14  2  0
 13 15  1  0
 11 16  1  0
 16 17  1  0
 17 18  2  0
 18 19  1  0
 19 20  2  0
 20 21  1  0
 20 22  1  0
 22 23  2  0
 23 17  1  0
M  END
$$$$
s_527a____7639252____17513452
     RDKit          3D

 23 24  0  0  0  0  0  0  0  0999 V2000
    0.4000    1.0000   -0.0392 O   0  0  0  0  0  0  0  0  0  0  0  0
    1.0000    1.0000    1.0000 C   0  0  0  0  0  0  0  0  0  0  0  0
    0.3150    1.0000    2.1865 N   0  0  0  0  0  0  0  0  0  0  0  0
   -1.1550    1.0000    2.1865 C   0  0  0  0  0  0  0  0  0  0  0  0
   -1.6616   -0.4110    1.9377 C   0  0  0  0  0  0  0  0  0  0  0  0
   -3.0727   -0.4406    1.9324 O   0  0  0  0  0  0  0  0  0  0  0  0
   -3.4468   -1.6227    1.2504 C   0  0  0  0  0  0  0  0  0  0  0  0
   -2.2525   -1.9058    0.3656 C   0  0  0  0  0  0  0  0  0  0  0  0
   -1.3862   -0.8107    0.6087 O   0  0  0  0  0  0  0  0  0  0  0  0
   -1.0386   -1.3074    2.9936 C   0  0  0  0  0  0  0  0  0  0  0  0
    2.5200    1.0000    1.0000 C   0  0  0  0  0  0  0  0  0  0  0  0
    3.0100    1.0000   -0.3859 N   0  0  0  0  0  0  0  0  0  0  0  0
    3.7976    2.0275   -0.8340 C   0  0  0  0  0  0  0  0  0  0  0  0
    4.0875    2.9275   -0.0951 O   0  0  0  0  0  0  0  0  0  0  0  0
    4.3043    2.0275   -2.2671 C   0  0  0  0  0  0  0  0  0  0  0  0
    3.0267   -0.2411    1.7165 C   0  0  0  0  0  0  0  0  0  0  0  0
    4.5467   -0.2411    1.7165 C   0  0  0  0  0  0  0  0  0  0  0  0
    5.2311    0.3644    2.7653 C   0  0  0  0  0  0  0  0  0  0  0  0
    6.6219    0.3662    2.7699 C   0  0  0  0  0  0  0  0  0  0  0  0
    7.3116   -0.2391    1.7241 C   0  0  0  0  0  0  0  0  0  0  0  0
    8.6614   -0.2393    1.7244 O   0  0  0  0  0  0  0  0  0  0  0  0
    6.6320   -0.8457    0.6727 C   0  0  0  0  0  0  0  0  0  0  0  0
    5.2412   -0.8449    0.6734 C   0  0  0  0  0  0  0  0  0  0  0  0
  1  2  2  0
  2  3  1  0
  3  4  1  0
  4  5  1  0
  5  6  1  0
  6  7  1  0
  7  8  1  0
  8  9  1  0
  9  5  1  0
  5 10  1  0
  2 11  1  0
 11 12  1  0
 12 13  1  0
 13 14  2  0
 13 15  1  0
 11 16  1  0
 16 17  1  0
 17 18  2  0
 18 19  1  0
 19 20  2  0
 20 21  1  0
 20 22  1  0
 22 23  2  0
 23 17  1  0
M  END
$$$$
s_22____8601360____17513450
     RDKit          3D

 23 24  0  0  0  0  0  0  0  0999 V2000
   -1.9803   -1.3344    3.5936 S   0  0  0  0  0  0  0  0  0  0  0  0
   -1.6611   -0.4315    2.1865 C   0  0  0  0  0  0  0  0  0  0  0  0
   -1.9384   -1.2060    1.1665 N   0  0  0  0  0  0  0  0  0  0  0  0
   -2.3701   -2.4227    1.4541 N   0  0  0  0  0  0  0  0  0  0  0  0
   -2.4687   -2.7151    2.7285 C   0  0  0  0  0  0  0  0  0  0  0  0
   -2.9390   -4.0222    3.3456 C   0  0  0  0  0  0  0  0  0  0  0  0
   -1.1550    1.0000    2.1865 C   0  0  0  0  0  0  0  0  0  0  0  0
    0.3150    1.0000    2.1865 N   0  0  0  0  0  0  0  0  0  0  0  0
    1.0000    1.0000    1.0000 C   0  0  0  0  0  0  0  0  0  0  0  0
    0.4000    1.0000   -0.0392 O   0  0  0  0  0  0  0  0  0  0  0  0
    2.5200    1.0000    1.0000 C   0  0  0  0  0  0  0  0  0  0  0  0
    3.0100    1.6930   -0.2002 N   0  0  0  0  0  0  0  0  0  0  0  0
    3.2383    3.0434   -0.1663 C   0  0  0  0  0  0  0  0  0  0  0  0
    3.0383    3.6605    0.8432 O   0  0  0  0  0  0  0  0  0  0  0  0
    3.7450    3.7599   -1.4074 C   0  0  0  0  0  0  0  0  0  0  0  0
    3.0267   -0.4331    1.0000 C   0  0  0  0  0  0  0  0  0  0  0  0
    4.5467   -0.4331    1.0000 C   0  0  0  0  0  0  0  0  0  0  0  0
    5.2311   -0.4331    2.2110 C   0  0  0  0  0  0  0  0  0  0  0  0
    6.6219   -0.4338    2.2159 C   0  0  0  0  0  0  0  0  0  0  0  0
    7.3116   -0.4351    1.0075 C   0  0  0  0  0  0  0  0  0  0  0  0
    8.7316   -0.4355    1.0077 O   0  0  0  0  0  0  0  0  0  0  0  0
    6.6320   -0.4347   -0.2063 C   0  0  0  0  0  0  0  0  0  0  0  0
    5.2412   -0.4344   -0.2053 C   0  0  0  0  0  0  0  0  0  0  0  0
  1  2  1  0
  2  3  2  0
  3  4  1  0
  4  5  2  0
  5  1  1  0
  5  6  1  0
  2  7  1  0
  7  8  1  0
  8  9  1  0
  9 10  2  0
  9 11  1  0
 11 12  1  0
 12 13  1  0
 13 14  2  0
 13 15  1  0
 11 16  1  0
 16 17  1  0
 17 18  2  0
 18 19  1  0
 19 20  2  0
 20 21  1  0
 20 22  1  0
 22 23  2  0
 23 17  1  0
M  END
$$$$
s_527a____9016336____17513452
     RDKit          3D

 23 24  0  0  0  0  0  0  0  0999 V2000
    0.4000    1.0000   -0.0392 O   0  0  0  0  0  0  0  0  0  0  0  0
    1.0000    1.0000    1.0000 C   0  0  0  0  0  0  0  0  0  0  0  0
    0.3150    1.0000    2.1865 N   0  0  0  0  0  0  0  0  0  0  0  0
   -1.1550    1.0000    2.1865 C   0  0  0  0  0  0  0  0  0  0  0  0
   -1.6618   -0.4333    2.1865 C   0  0  0  0  0  0  0  0  0  0  0  0
   -1.9141   -1.1470    3.2568 O   0  0  0  0  0  0  0  0  0  0  0  0
   -2.3267   -2.3169    2.8318 C   0  0  0  0  0  0  0  0  0  0  0  0
   -2.3299   -2.3266    1.5191 N   0  0  0  0  0  0  0  0  0  0  0  0
   -1.9143   -1.1487    1.1148 N   0  0  0  0  0  0  0  0  0  0  0  0
   -2.7255   -3.4408    3.6912 N   0  0  0  0  0  0  0  0  0  0  0  0
    2.5200    1.0000    1.0000 C   0  0  0  0  0  0  0  0  0  0  0  0
    3.0100    1.6930   -0.2002 N   0  0  0  0  0  0  0  0  0  0  0  0
    3.2383    3.0434   -0.1663 C   0  0  0  0  0  0  0  0  0  0  0  0
    3.0383    3.6605    0.8432 O   0  0  0  0  0  0  0  0  0  0  0  0
    3.7450    3.7599   -1.4074 C   0  0  0  0  0  0  0  0  0  0  0  0
    3.0267   -0.4331    1.0000 C   0  0  0  0  0  0  0  0  0  0  0  0
    4.5467   -0.4331    1.0000 C   0  0  0  0  0  0  0  0  0  0  0  0
    5.2311   -0.4331    2.2110 C   0  0  0  0  0  0  0  0  0  0  0  0
    6.6219   -0.4338    2.2159 C   0  0  0  0  0  0  0  0  0  0  0  0
    7.3116   -0.4351    1.0075 C   0  0  0  0  0  0  0  0  0  0  0  0
    8.7316   -0.4355    1.0077 O   0  0  0  0  0  0  0  0  0  0  0  0
    6.6320   -0.4347   -0.2063 C   0  0  0  0  0  0  0  0  0  0  0  0
    5.2412   -0.4344   -0.2053 C   0  0  0  0  0  0  0  0  0  0  0  0
  1  2  2  0
  2  3  1  0
  3  4  1  0
  4  5  1  0
  5  6  1  0
  6  7  1  0
  7  8  2  0
  8  9  1  0
  5  9  2  0
  7 10  1  0
  2 11  1  0
 11 12  1  0
 12 13  1  0
 13 14  2  0
 13 15  1  0
 11 16  1  0
 16 17  1  0
 17 18  2  0
 18 19  1  0
 19 20  2  0
 20 21  1  0
 20 22  1  0
 22 23  2  0
 23 17  1  0
M  END
$$$$
s_22____2014098____17064022
     RDKit          3D

 24 24  0  0  0  0  0  0  0  0999 V2000
    3.4716    0.3240    1.8978 O   0  0  0  0  0  0  0  0  0  0  0  0
    3.0831    1.4052    2.2442 C   0  0  0  0  0  0  0  0  0  0  0  0
    1.8487    1.8487    1.8487 N   0  0  0  0  0  0  0  0  0  0  0  0
    1.0000    1.0000    1.0000 C   0  0  0  0  0  0  0  0  0  0  0  0
    0.7075    1.7208   -0.3059 C   0  0  0  0  0  0  0  0  0  0  0  0
   -0.3868    1.6571   -0.7943 O   0  0  0  0  0  0  0  0  0  0  0  0
    1.6931    2.4433   -0.9252 N   0  0  0  0  0  0  0  0  0  0  0  0
    1.4102    3.1404   -2.1881 C   0  0  0  0  0  0  0  0  0  0  0  0
    2.6623    3.8609   -2.6606 C   0  0  0  0  0  0  0  0  0  0  0  0
    2.3698    4.5817   -3.9665 C   0  0  0  0  0  0  0  0  0  0  0  0
    3.0927    4.8711   -1.6096 C   0  0  0  0  0  0  0  0  0  0  0  0
    3.7767    2.8503   -2.8783 C   0  0  0  0  0  0  0  0  0  0  0  0
   -0.3059    0.7075    1.7208 C   0  0  0  0  0  0  0  0  0  0  0  0
   -0.0133   -0.0134    3.0267 C   0  0  0  0  0  0  0  0  0  0  0  0
    0.1949    0.7274    4.1855 C   0  0  0  0  0  0  0  0  0  0  0  0
    0.4621    0.0721    5.3829 C   0  0  0  0  0  0  0  0  0  0  0  0
    0.5173   -1.3180    5.4060 C   0  0  0  0  0  0  0  0  0  0  0  0
    0.7767   -1.9580    6.5658 O   0  0  0  0  0  0  0  0  0  0  0  0
    0.3102   -2.0634    4.2499 C   0  0  0  0  0  0  0  0  0  0  0  0
    0.0429   -1.4030    3.0554 C   0  0  0  0  0  0  0  0  0  0  0  0
    3.9607    2.2828    3.1218 C   0  0  0  0  0  0  0  0  0  0  0  0
    3.2399    2.5753    4.4276 C   0  0  0  0  0  0  0  0  0  0  0  0
    4.1175    3.4529    5.3052 C   0  0  0  0  0  0  0  0  0  0  0  0
    5.2666    1.5620    3.4143 C   0  0  0  0  0  0  0  0  0  0  0  0
  1  2  2  0
  2  3  1  0
  3  4  1  0
  4  5  1  0
  5  6  2  0
  5  7  1  0
  7  8  1  0
  8  9  1  0
  9 10  1  0
  9 11  1  0
  9 12  1  0
  4 13  1  0
 13 14  1  0
 14 15  2  0
 15 16  1  0
 16 17  2  0
 17 18  1  0
 17 19  1  0
 19 20  2  0
 20 14  1  0
  2 21  1  0
 21 22  1  0
 22 23  1  0
 21 24  1  0
M  END
$$$$
s_22____10176574____14577636
     RDKit          3D

 19 20  0  0  0  0  0  0  0  0999 V2000
    4.9367    1.0000   -0.4331 Br  0  0  0  0  0  0  0  0  0  0  0  0
    2.9767    1.0000   -0.4331 C   0  0  0  0  0  0  0  0  0  0  0  0
    2.5333   -0.0859   -1.0600 F   0  0  0  0  0  0  0  0  0  0  0  0
    2.5333    2.0859   -1.0600 F   0  0  0  0  0  0  0  0  0  0  0  0
    2.4700    1.0000    1.0000 C   0  0  0  0  0  0  0  0  0  0  0  0
    1.0000    1.0000    1.0000 N   0  0  0  0  0  0  0  0  0  0  0  0
    0.3150    1.0000    2.1865 C   0  0  0  0  0  0  0  0  0  0  0  0
    0.9150    1.0000    3.2257 O   0  0  0  0  0  0  0  0  0  0  0  0
   -1.2052    1.0000    2.1865 C   0  0  0  0  0  0  0  0  0  0  0  0
   -1.7618   -0.2264    1.4784 C   0  0  0  0  0  0  0  0  0  0  0  0
   -1.1377   -1.2749    1.4291 O   0  0  0  0  0  0  0  0  0  0  0  0
   -3.0245   -0.1464    0.8761 N   0  0  0  0  0  0  0  0  0  0  0  0
   -3.7913    1.0229    0.9459 C   0  0  0  0  0  0  0  0  0  0  0  0
   -3.1645    2.2300    1.2384 C   0  0  0  0  0  0  0  0  0  0  0  0
   -3.8894    3.4164    1.3020 C   0  0  0  0  0  0  0  0  0  0  0  0
   -5.2606    3.3898    1.0723 C   0  0  0  0  0  0  0  0  0  0  0  0
   -5.9070    2.1933    0.7805 C   0  0  0  0  0  0  0  0  0  0  0  0
   -5.1634    1.0188    0.7202 C   0  0  0  0  0  0  0  0  0  0  0  0
   -1.6673    2.2753    1.4988 C   0  0  0  0  0  0  0  0  0  0  0  0
  1  2  1  0
  2  3  1  0
  2  4  1  0
  2  5  1  0
  5  6  1  0
  6  7  1  0
  7  8  2  0
  7  9  1  0
  9 10  1  0
 10 11  2  0
 10 12  1  0
 12 13  1  0
 13 14  2  0
 14 15  1  0
 15 16  2  0
 16 17  1  0
 17 18  2  0
 18 13  1  0
 14 19  1  0
 19  9  1  0
M  END
$$$$
s_22____10117792____17057108
     RDKit          3D

 25 25  0  0  0  0  0  0  0  0999 V2000
    1.1058    3.7591    4.4970 O   0  0  0  0  0  0  0  0  0  0  0  0
    2.1022    4.2528    4.0460 C   0  0  0  0  0  0  0  0  0  0  0  0
    2.8586    5.0091    4.8023 O   0  0  0  0  0  0  0  0  0  0  0  0
    2.4993    5.2447    6.1558 C   0  0  0  0  0  0  0  0  0  0  0  0
    2.4488    4.0256    2.7402 N   0  0  0  0  0  0  0  0  0  0  0  0
    1.6504    3.2271    1.9417 N   0  0  0  0  0  0  0  0  0  0  0  0
    1.8776    1.8776    1.8776 C   0  0  0  0  0  0  0  0  0  0  0  0
    2.7694    1.3883    2.5142 O   0  0  0  0  0  0  0  0  0  0  0  0
    1.0000    1.0000    1.0000 C   0  0  0  0  0  0  0  0  0  0  0  0
    0.7171    1.6971   -0.2629 N   0  0  0  0  0  0  0  0  0  0  0  0
    1.1013    1.1397   -1.4540 C   0  0  0  0  0  0  0  0  0  0  0  0
    1.5876    0.0429   -1.4739 O   0  0  0  0  0  0  0  0  0  0  0  0
    0.9116    1.9107   -2.7501 C   0  0  0  0  0  0  0  0  0  0  0  0
    2.0609    1.6024   -3.6959 C   0  0  0  0  0  0  0  0  0  0  0  0
    1.6307    1.8866   -5.1257 C   0  0  0  0  0  0  0  0  0  0  0  0
    3.2551    2.4743   -3.3432 C   0  0  0  0  0  0  0  0  0  0  0  0
   -0.3059    0.7075    1.7208 C   0  0  0  0  0  0  0  0  0  0  0  0
   -1.1835   -0.1701    0.8432 C   0  0  0  0  0  0  0  0  0  0  0  0
   -1.0842   -1.5540    0.9425 C   0  0  0  0  0  0  0  0  0  0  0  0
   -1.8857   -2.3610    0.1420 C   0  0  0  0  0  0  0  0  0  0  0  0
   -2.7781   -1.7726   -0.7486 C   0  0  0  0  0  0  0  0  0  0  0  0
   -3.5577   -2.5520   -1.5276 O   0  0  0  0  0  0  0  0  0  0  0  0
   -2.8811   -0.3891   -0.8520 C   0  0  0  0  0  0  0  0  0  0  0  0
   -2.0774    0.4131   -0.0489 C   0  0  0  0  0  0  0  0  0  0  0  0
    3.6695    4.6304    2.1878 C   0  0  0  0  0  0  0  0  0  0  0  0
  1  2  2  0
  2  3  1  0
  3  4  1  0
  2  5  1  0
  5  6  1  0
  6  7  1  0
  7  8  2  0
  7  9  1  0
  9 10  1  0
 10 11  1  0
 11 12  2  0
 11 13  1  0
 13 14  1  0
 14 15  1  0
 14 16  1  0
  9 17  1  0
 17 18  1  0
 18 19  2  0
 19 20  1  0
 20 21  2  0
 21 22  1  0
 21 23  1  0
 23 24  2  0
 24 18  1  0
  5 25  1  0
M  END
$$$$
s_22____10176574____10954548
     RDKit          3D

 20 21  0  0  0  0  0  0  0  0999 V2000
   -3.6217    1.0000    3.6195 Br  0  0  0  0  0  0  0  0  0  0  0  0
   -1.6617    1.0000    3.6195 C   0  0  0  0  0  0  0  0  0  0  0  0
   -1.2183   -0.0859    4.2465 F   0  0  0  0  0  0  0  0  0  0  0  0
   -1.2183    2.0859    4.2465 F   0  0  0  0  0  0  0  0  0  0  0  0
   -1.1550    1.0000    2.1865 C   0  0  0  0  0  0  0  0  0  0  0  0
    0.3150    1.0000    2.1865 N   0  0  0  0  0  0  0  0  0  0  0  0
    1.0000    1.0000    1.0000 C   0  0  0  0  0  0  0  0  0  0  0  0
    0.4000    1.0000   -0.0392 O   0  0  0  0  0  0  0  0  0  0  0  0
    2.5200    1.0000    1.0000 C   0  0  0  0  0  0  0  0  0  0  0  0
    3.0267    1.4309   -0.3667 C   0  0  0  0  0  0  0  0  0  0  0  0
    2.6785    2.8923   -0.5985 C   0  0  0  0  0  0  0  0  0  0  0  0
    2.1480    3.2835   -1.8234 C   0  0  0  0  0  0  0  0  0  0  0  0
    1.8272    4.6194   -2.0398 C   0  0  0  0  0  0  0  0  0  0  0  0
    2.0410    5.5484   -1.0264 C   0  0  0  0  0  0  0  0  0  0  0  0
    1.7314    6.8461   -1.2323 O   0  0  0  0  0  0  0  0  0  0  0  0
    2.5717    5.1626    0.2003 C   0  0  0  0  0  0  0  0  0  0  0  0
    2.8902    3.8253    0.4113 C   0  0  0  0  0  0  0  0  0  0  0  0
    4.5357    1.2537   -0.4269 C   0  0  0  0  0  0  0  0  0  0  0  0
    4.9179   -0.1801   -0.2019 C   0  0  0  0  0  0  0  0  0  0  0  0
    5.1165    0.8301    0.8915 C   0  0  0  0  0  0  0  0  0  0  0  0
  1  2  1  0
  2  3  1  0
  2  4  1  0
  2  5  1  0
  5  6  1  0
  6  7  1  0
  7  8  2  0
  7  9  1  0
  9 10  1  0
 10 11  1  0
 11 12  2  0
 12 13  1  0
 13 14  2  0
 14 15  1  0
 14 16  1  0
 16 17  2  0
 17 11  1  0
 10 18  1  0
 18 19  1  0
 19 20  1  0
 20 18  1  0
M  END
$$$$
s_22____10176574____12113610
     RDKit          3D

 22 23  0  0  0  0  0  0  0  0999 V2000
    5.0729    1.0325   -0.6003 Br  0  0  0  0  0  0  0  0  0  0  0  0
    4.5994    0.0047    1.0000 C   0  0  0  0  0  0  0  0  0  0  0  0
    4.9207    0.7021    2.0859 F   0  0  0  0  0  0  0  0  0  0  0  0
    5.2644   -1.1471    1.0000 F   0  0  0  0  0  0  0  0  0  0  0  0
    3.1050   -0.2731    1.0000 C   0  0  0  0  0  0  0  0  0  0  0  0
    2.3700    1.0000    1.0000 N   0  0  0  0  0  0  0  0  0  0  0  0
    1.0000    1.0000    1.0000 C   0  0  0  0  0  0  0  0  0  0  0  0
    0.4000   -0.0392    1.0000 O   0  0  0  0  0  0  0  0  0  0  0  0
    0.2400    2.3164    1.0000 C   0  0  0  0  0  0  0  0  0  0  0  0
   -1.2054    2.0477    1.0000 N   0  0  0  0  0  0  0  0  0  0  0  0
   -1.9153    1.9158    2.2012 C   0  0  0  0  0  0  0  0  0  0  0  0
   -1.3540    2.0117    3.2804 O   0  0  0  0  0  0  0  0  0  0  0  0
   -3.2943    1.6711    2.1856 N   0  0  0  0  0  0  0  0  0  0  0  0
   -4.0105    1.5702    0.9037 C   0  0  0  0  0  0  0  0  0  0  0  0
   -5.2231    0.6590    1.0067 C   0  0  0  0  0  0  0  0  0  0  0  0
   -6.1375    0.8430    2.0387 C   0  0  0  0  0  0  0  0  0  0  0  0
   -7.2453    0.0065    2.1298 C   0  0  0  0  0  0  0  0  0  0  0  0
   -7.4329   -1.0038    1.1923 C   0  0  0  0  0  0  0  0  0  0  0  0
   -6.5132   -1.1779    0.1655 C   0  0  0  0  0  0  0  0  0  0  0  0
   -5.4012   -0.3485    0.0639 C   0  0  0  0  0  0  0  0  0  0  0  0
   -3.1079    1.0190   -0.1886 C   0  0  0  0  0  0  0  0  0  0  0  0
   -1.8888    1.9208   -0.2956 C   0  0  0  0  0  0  0  0  0  0  0  0
  1  2  1  0
  2  3  1  0
  2  4  1  0
  2  5  1  0
  5  6  1  0
  6  7  1  0
  7  8  2  0
  7  9  1  0
  9 10  1  0
 10 11  1  0
 11 12  2  0
 11 13  1  0
 13 14  1  0
 14 15  1  0
 15 16  2  0
 16 17  1  0
 17 18  2  0
 18 19  1  0
 19 20  2  0
 20 15  1  0
 14 21  1  0
 21 22  1  0
 22 10  1  0
M  END
$$$$
s_2708____6465958____17066264
     RDKit          3D

 22 22  0  0  0  0  0  0  0  0999 V2000
   -3.6250    1.7199   -1.6462 F   0  0  0  0  0  0  0  0  0  0  0  0
   -3.1817    1.9376   -0.4113 C   0  0  0  0  0  0  0  0  0  0  0  0
   -3.6250    0.9770    0.3947 F   0  0  0  0  0  0  0  0  0  0  0  0
   -3.6250    3.1159    0.0176 F   0  0  0  0  0  0  0  0  0  0  0  0
   -1.6617    1.9376   -0.4113 C   0  0  0  0  0  0  0  0  0  0  0  0
   -1.2183    2.8982   -1.2173 F   0  0  0  0  0  0  0  0  0  0  0  0
   -1.1550    2.1865    1.0000 C   0  0  0  0  0  0  0  0  0  0  0  0
    0.3150    2.1865    1.0000 N   0  0  0  0  0  0  0  0  0  0  0  0
    1.0000    1.0000    1.0000 C   0  0  0  0  0  0  0  0  0  0  0  0
    0.4000   -0.0392    1.0000 O   0  0  0  0  0  0  0  0  0  0  0  0
    2.3700    1.0000    1.0000 N   0  0  0  0  0  0  0  0  0  0  0  0
    3.1050   -0.2731    1.0000 C   0  0  0  0  0  0  0  0  0  0  0  0
    4.2359   -0.2052   -0.0133 C   0  0  0  0  0  0  0  0  0  0  0  0
    3.7113    0.1457   -1.2853 O   0  0  0  0  0  0  0  0  0  0  0  0
    3.3593   -1.0335   -1.9939 C   0  0  0  0  0  0  0  0  0  0  0  0
    3.6795   -0.5264    2.3842 C   0  0  0  0  0  0  0  0  0  0  0  0
    4.5913   -1.7421    2.3398 C   0  0  0  0  0  0  0  0  0  0  0  0
    5.9600   -1.5843    2.5315 C   0  0  0  0  0  0  0  0  0  0  0  0
    6.7908   -2.6992    2.4892 C   0  0  0  0  0  0  0  0  0  0  0  0
    6.2514   -3.9602    2.2578 C   0  0  0  0  0  0  0  0  0  0  0  0
    4.8827   -4.1059    2.0682 C   0  0  0  0  0  0  0  0  0  0  0  0
    4.0414   -2.9988    2.1075 C   0  0  0  0  0  0  0  0  0  0  0  0
  1  2  1  0
  2  3  1  0
  2  4  1  0
  2  5  1  0
  5  6  1  0
  5  7  1  0
  7  8  1  0
  8  9  1  0
  9 10  2  0
  9 11  1  0
 11 12  1  0
 12 13  1  0
 13 14  1  0
 14 15  1  0
 12 16  1  0
 16 17  1  0
 17 18  2  0
 18 19  1  0
 19 20  2  0
 20 21  1  0
 21 22  2  0
 22 17  1  0
M  END
$$$$
s_11a____10176570____12422086
     RDKit          3D

 20 20  0  0  0  0  0  0  0  0999 V2000
   -3.6217    1.0000    3.6195 Br  0  0  0  0  0  0  0  0  0  0  0  0
   -1.6617    1.0000    3.6195 C   0  0  0  0  0  0  0  0  0  0  0  0
   -1.2183   -0.0859    4.2465 F   0  0  0  0  0  0  0  0  0  0  0  0
   -1.2183    2.0859    4.2465 F   0  0  0  0  0  0  0  0  0  0  0  0
   -1.1550    1.0000    2.1865 C   0  0  0  0  0  0  0  0  0  0  0  0
    0.3150    1.0000    2.1865 N   0  0  0  0  0  0  0  0  0  0  0  0
    1.0000    1.0000    1.0000 C   0  0  0  0  0  0  0  0  0  0  0  0
    0.4000    1.0000   -0.0392 O   0  0  0  0  0  0  0  0  0  0  0  0
    2.5200    1.0000    1.0000 C   0  0  0  0  0  0  0  0  0  0  0  0
    3.0267    1.0000   -0.4331 C   0  0  0  0  0  0  0  0  0  0  0  0
    4.5469    1.0000   -0.4331 C   0  0  0  0  0  0  0  0  0  0  0  0
    5.2428   -0.2051   -0.4331 C   0  0  0  0  0  0  0  0  0  0  0  0
    6.6340   -0.2049   -0.4326 C   0  0  0  0  0  0  0  0  0  0  0  0
    7.3296    0.9998   -0.4320 C   0  0  0  0  0  0  0  0  0  0  0  0
    6.6340    2.2047   -0.4329 C   0  0  0  0  0  0  0  0  0  0  0  0
    5.2424    2.2047   -0.4330 C   0  0  0  0  0  0  0  0  0  0  0  0
    4.5177   -1.5413   -0.4334 C   0  0  0  0  0  0  0  0  0  0  0  0
    3.7554   -1.6317   -1.5195 F   0  0  0  0  0  0  0  0  0  0  0  0
    5.4083   -2.5291   -0.4333 F   0  0  0  0  0  0  0  0  0  0  0  0
    3.7549   -1.6320    0.6523 F   0  0  0  0  0  0  0  0  0  0  0  0
  1  2  1  0
  2  3  1  0
  2  4  1  0
  2  5  1  0
  5  6  1  0
  6  7  1  0
  7  8  2  0
  7  9  1  0
  9 10  1  0
 10 11  1  0
 11 12  2  0
 12 13  1  0
 13 14  2  0
 14 15  1  0
 15 16  2  0
 16 11  1  0
 12 17  1  0
 17 18  1  0
 17 19  1  0
 17 20  1  0
M  END
$$$$
s_22____16639008____1720042
     RDKit          3D

 19 19  0  0  0  0  0  0  0  0999 V2000
   -0.6793    3.8907   -4.2928 F   0  0  0  0  0  0  0  0  0  0  0  0
   -0.4584    3.5051   -3.0393 C   0  0  0  0  0  0  0  0  0  0  0  0
   -1.3889    2.7017   -2.3882 C   0  0  0  0  0  0  0  0  0  0  0  0
   -1.1514    2.3031   -1.0768 C   0  0  0  0  0  0  0  0  0  0  0  0
    0.0117    2.7118   -0.4329 C   0  0  0  0  0  0  0  0  0  0  0  0
    0.9387    3.5146   -1.0888 C   0  0  0  0  0  0  0  0  0  0  0  0
    0.7069    3.9159   -2.4001 C   0  0  0  0  0  0  0  0  0  0  0  0
    0.2650    2.2731    1.0000 C   0  0  0  0  0  0  0  0  0  0  0  0
    1.0000    1.0000    1.0000 N   0  0  0  0  0  0  0  0  0  0  0  0
    2.3700    1.0000    1.0000 C   0  0  0  0  0  0  0  0  0  0  0  0
    2.9700    2.0392    1.0000 O   0  0  0  0  0  0  0  0  0  0  0  0
    3.1300   -0.3164    1.0000 C   0  0  0  0  0  0  0  0  0  0  0  0
    3.3833   -0.7551   -0.4331 C   0  0  0  0  0  0  0  0  0  0  0  0
    4.0483   -1.9070   -0.4331 F   0  0  0  0  0  0  0  0  0  0  0  0
    2.2212   -0.9142   -1.0600 F   0  0  0  0  0  0  0  0  0  0  0  0
    4.1021    0.1718   -1.0600 F   0  0  0  0  0  0  0  0  0  0  0  0
    0.2650   -0.2731    1.0000 C   0  0  0  0  0  0  0  0  0  0  0  0
    0.0117   -0.7118    2.4331 C   0  0  0  0  0  0  0  0  0  0  0  0
   -0.6983   -1.9416    2.4331 O   0  0  0  0  0  0  0  0  0  0  0  0
  1  2  1  0
  2  3  2  0
  3  4  1  0
  4  5  2  0
  5  6  1  0
  6  7  2  0
  7  2  1  0
  5  8  1  0
  8  9  1  0
  9 10  1  0
 10 11  2  0
 10 12  1  0
 12 13  1  0
 13 14  1  0
 13 15  1  0
 13 16  1  0
  9 17  1  0
 17 18  1  0
 18 19  1  0
M  END
$$$$
s_22____8629128____12624298
     RDKit          3D

 21 21  0  0  0  0  0  0  0  0999 V2000
   -4.9718    1.6148    2.2810 Br  0  0  0  0  0  0  0  0  0  0  0  0
   -3.5064    1.7632    0.9881 C   0  0  0  0  0  0  0  0  0  0  0  0
   -2.2091    1.9780    1.4403 C   0  0  0  0  0  0  0  0  0  0  0  0
   -1.1798    2.0818    0.5098 C   0  0  0  0  0  0  0  0  0  0  0  0
   -1.4333    1.9740   -0.8534 C   0  0  0  0  0  0  0  0  0  0  0  0
   -2.7384    1.7598   -1.2841 C   0  0  0  0  0  0  0  0  0  0  0  0
   -3.7819    1.6529   -0.3707 C   0  0  0  0  0  0  0  0  0  0  0  0
    0.2400    2.3164    1.0000 C   0  0  0  0  0  0  0  0  0  0  0  0
    0.9144    3.2716    0.1091 N   0  0  0  0  0  0  0  0  0  0  0  0
    1.3899    4.4555    0.6082 C   0  0  0  0  0  0  0  0  0  0  0  0
    1.2557    4.7128    1.7726 O   0  0  0  0  0  0  0  0  0  0  0  0
    2.0873    5.4432   -0.3129 C   0  0  0  0  0  0  0  0  0  0  0  0
    1.0000    1.0000    1.0000 C   0  0  0  0  0  0  0  0  0  0  0  0
    0.4000   -0.0392    1.0000 O   0  0  0  0  0  0  0  0  0  0  0  0
    2.3700    1.0000    1.0000 N   0  0  0  0  0  0  0  0  0  0  0  0
    3.1050   -0.2731    1.0000 C   0  0  0  0  0  0  0  0  0  0  0  0
    4.5994    0.0047    1.0000 C   0  0  0  0  0  0  0  0  0  0  0  0
    5.3594   -1.3117    1.0000 C   0  0  0  0  0  0  0  0  0  0  0  0
    5.9294   -2.2989    1.0000 N   0  0  0  0  0  0  0  0  0  0  0  0
    4.9666    0.8017   -0.2411 C   0  0  0  0  0  0  0  0  0  0  0  0
    4.9666    0.8017    2.2411 C   0  0  0  0  0  0  0  0  0  0  0  0
  1  2  1  0
  2  3  2  0
  3  4  1  0
  4  5  2  0
  5  6  1  0
  6  7  2  0
  7  2  1  0
  4  8  1  0
  8  9  1  0
  9 10  1  0
 10 11  2  0
 10 12  1  0
  8 13  1  0
 13 14  2  0
 13 15  1  0
 15 16  1  0
 16 17  1  0
 17 18  1  0
 18 19  3  0
 17 20  1  0
 17 21  1  0
M  END
$$$$
s_11a____12527150____16716798
     RDKit          3D

 26 26  0  0  0  0  0  0  0  0999 V2000
   -0.4264    1.0000    7.4642 Br  0  0  0  0  0  0  0  0  0  0  0  0
    0.8473    1.0000    5.9745 C   0  0  0  0  0  0  0  0  0  0  0  0
    1.6119   -0.0859    6.0449 F   0  0  0  0  0  0  0  0  0  0  0  0
    1.6119    2.0859    6.0449 F   0  0  0  0  0  0  0  0  0  0  0  0
    0.0873    1.0000    4.6581 C   0  0  0  0  0  0  0  0  0  0  0  0
   -0.6774    2.0859    4.5877 F   0  0  0  0  0  0  0  0  0  0  0  0
   -0.6774   -0.0859    4.5877 F   0  0  0  0  0  0  0  0  0  0  0  0
    1.0750    1.0000    3.5028 C   0  0  0  0  0  0  0  0  0  0  0  0
    0.3150    1.0000    2.1865 C   0  0  0  0  0  0  0  0  0  0  0  0
   -0.8850    1.0000    2.1865 O   0  0  0  0  0  0  0  0  0  0  0  0
    1.0000    1.0000    1.0000 N   0  0  0  0  0  0  0  0  0  0  0  0
    2.4700    1.0000    1.0000 C   0  0  0  0  0  0  0  0  0  0  0  0
    2.9767   -0.3842    0.6291 C   0  0  0  0  0  0  0  0  0  0  0  0
    2.3993   -1.0324   -0.1995 O   0  0  0  0  0  0  0  0  0  0  0  0
    4.0924   -0.8919    1.2408 N   0  0  0  0  0  0  0  0  0  0  0  0
    4.8389   -1.9916    0.6127 C   0  0  0  0  0  0  0  0  0  0  0  0
    5.9109   -1.4196   -0.3005 C   0  0  0  0  0  0  0  0  0  0  0  0
    4.5432   -0.3370    2.5252 C   0  0  0  0  0  0  0  0  0  0  0  0
    4.2788   -1.3438    3.6329 C   0  0  0  0  0  0  0  0  0  0  0  0
    2.9767    2.0133   -0.0133 C   0  0  0  0  0  0  0  0  0  0  0  0
    3.1456    3.3647    0.6624 C   0  0  0  0  0  0  0  0  0  0  0  0
    2.0829    4.2620    0.6838 C   0  0  0  0  0  0  0  0  0  0  0  0
    2.2420    5.4978    1.3024 C   0  0  0  0  0  0  0  0  0  0  0  0
    3.4564    5.8279    1.8946 C   0  0  0  0  0  0  0  0  0  0  0  0
    4.5109    4.9235    1.8676 C   0  0  0  0  0  0  0  0  0  0  0  0
    4.3646    3.6849    1.2516 C   0  0  0  0  0  0  0  0  0  0  0  0
  1  2  1  0
  2  3  1  0
  2  4  1  0
  2  5  1  0
  5  6  1  0
  5  7  1  0
  5  8  1  0
  8  9  1  0
  9 10  2  0
  9 11  1  0
 11 12  1  0
 12 13  1  0
 13 14  2  0
 13 15  1  0
 15 16  1  0
 16 17  1  0
 15 18  1  0
 18 19  1  0
 12 20  1  0
 20 21  1  0
 21 22  2  0
 22 23  1  0
 23 24  2  0
 24 25  1  0
 25 26  2  0
 26 21  1  0
M  END
$$$$
s_487a____4147468____1735730
     RDKit          3D

 22 22  0  0  0  0  0  0  0  0999 V2000
    0.6676   -3.1223    1.8648 Cl  0  0  0  0  0  0  0  0  0  0  0  0
    2.2253   -3.6279    1.1673 C   0  0  0  0  0  0  0  0  0  0  0  0
    2.9768   -2.7441    0.4000 C   0  0  0  0  0  0  0  0  0  0  0  0
    4.1925   -3.1519   -0.1389 C   0  0  0  0  0  0  0  0  0  0  0  0
    4.6524   -4.4440    0.0919 C   0  0  0  0  0  0  0  0  0  0  0  0
    3.8968   -5.3236    0.8593 C   0  0  0  0  0  0  0  0  0  0  0  0
    2.6801   -4.9217    1.4009 C   0  0  0  0  0  0  0  0  0  0  0  0
    2.4700   -1.3325    0.1511 C   0  0  0  0  0  0  0  0  0  0  0  0
    2.9767   -0.4113    1.2488 C   0  0  0  0  0  0  0  0  0  0  0  0
    4.4967   -0.4113    1.2488 C   0  0  0  0  0  0  0  0  0  0  0  0
    5.0967   -0.7667    2.2254 O   0  0  0  0  0  0  0  0  0  0  0  0
    5.1817   -0.0055    0.1339 N   0  0  0  0  0  0  0  0  0  0  0  0
    2.4700    1.0000    1.0000 C   0  0  0  0  0  0  0  0  0  0  0  0
    1.0000    1.0000    1.0000 N   0  0  0  0  0  0  0  0  0  0  0  0
    0.3150    1.0000    2.1865 C   0  0  0  0  0  0  0  0  0  0  0  0
    0.9150    1.0000    3.2257 O   0  0  0  0  0  0  0  0  0  0  0  0
   -1.0550    1.0000    2.1865 N   0  0  0  0  0  0  0  0  0  0  0  0
   -1.7900    1.0000    3.4595 C   0  0  0  0  0  0  0  0  0  0  0  0
   -3.2844    1.0000    3.1818 C   0  0  0  0  0  0  0  0  0  0  0  0
   -3.6057    2.0859    2.4843 F   0  0  0  0  0  0  0  0  0  0  0  0
   -3.6057   -0.0859    2.4843 F   0  0  0  0  0  0  0  0  0  0  0  0
   -3.9494    1.0000    4.3336 F   0  0  0  0  0  0  0  0  0  0  0  0
  1  2  1  0
  2  3  2  0
  3  4  1  0
  4  5  2  0
  5  6  1  0
  6  7  2  0
  7  2  1  0
  3  8  1  0
  8  9  1  0
  9 10  1  0
 10 11  2  0
 10 12  1  0
  9 13  1  0
 13 14  1  0
 14 15  1  0
 15 16  2  0
 15 17  1  0
 17 18  1  0
 18 19  1  0
 19 20  1  0
 19 21  1  0
 19 22  1  0
M  END
$$$$
s_22____6362564____17512240
     RDKit          3D

 21 21  0  0  0  0  0  0  0  0999 V2000
    5.0367    0.9538   -0.4779 S   0  0  0  0  0  0  0  0  0  0  0  0
    4.5994    0.0047    1.0000 C   0  0  0  0  0  0  0  0  0  0  0  0
    3.1050   -0.2731    1.0000 C   0  0  0  0  0  0  0  0  0  0  0  0
    2.3700    1.0000    1.0000 N   0  0  0  0  0  0  0  0  0  0  0  0
    1.0000    1.0000    1.0000 C   0  0  0  0  0  0  0  0  0  0  0  0
    0.4000   -0.0392    1.0000 O   0  0  0  0  0  0  0  0  0  0  0  0
    0.2400    2.3164    1.0000 C   0  0  0  0  0  0  0  0  0  0  0  0
    0.9144    3.2716    0.1091 N   0  0  0  0  0  0  0  0  0  0  0  0
    1.3899    4.4555    0.6082 C   0  0  0  0  0  0  0  0  0  0  0  0
    1.2557    4.7128    1.7726 O   0  0  0  0  0  0  0  0  0  0  0  0
    2.0873    5.4432   -0.3129 C   0  0  0  0  0  0  0  0  0  0  0  0
   -1.1796    2.0818    0.5099 C   0  0  0  0  0  0  0  0  0  0  0  0
   -1.9397    3.3984    0.5099 C   0  0  0  0  0  0  0  0  0  0  0  0
   -1.9263    4.2018   -0.6256 C   0  0  0  0  0  0  0  0  0  0  0  0
   -2.6225    5.4062   -0.6211 C   0  0  0  0  0  0  0  0  0  0  0  0
   -3.3262    5.7985    0.5127 C   0  0  0  0  0  0  0  0  0  0  0  0
   -3.3329    4.9877    1.6411 C   0  0  0  0  0  0  0  0  0  0  0  0
   -2.6402    3.7815    1.6493 C   0  0  0  0  0  0  0  0  0  0  0  0
    4.9666    0.8017    2.2411 C   0  0  0  0  0  0  0  0  0  0  0  0
    5.3594   -1.3117    1.0000 C   0  0  0  0  0  0  0  0  0  0  0  0
    6.8166    1.1173   -0.1930 C   0  0  0  0  0  0  0  0  0  0  0  0
  1  2  1  0
  2  3  1  0
  3  4  1  0
  4  5  1  0
  5  6  2  0
  5  7  1  0
  7  8  1  0
  8  9  1  0
  9 10  2  0
  9 11  1  0
  7 12  1  0
 12 13  1  0
 13 14  2  0
 14 15  1  0
 15 16  2  0
 16 17  1  0
 17 18  2  0
 18 13  1  0
  2 19  1  0
  2 20  1  0
  1 21  1  0
M  END
$$$$
s_2430a____13259370____8283090
     RDKit          3D

 22 22  0  0  0  0  0  0  0  0999 V2000
   -3.6057    2.0859    2.4843 F   0  0  0  0  0  0  0  0  0  0  0  0
   -3.2844    1.0000    3.1818 C   0  0  0  0  0  0  0  0  0  0  0  0
   -3.6057   -0.0859    2.4843 F   0  0  0  0  0  0  0  0  0  0  0  0
   -3.9494    1.0000    4.3336 F   0  0  0  0  0  0  0  0  0  0  0  0
   -1.7900    1.0000    3.4595 C   0  0  0  0  0  0  0  0  0  0  0  0
   -1.0550    1.0000    2.1865 N   0  0  0  0  0  0  0  0  0  0  0  0
    0.3150    1.0000    2.1865 C   0  0  0  0  0  0  0  0  0  0  0  0
    0.9150    1.0000    3.2257 O   0  0  0  0  0  0  0  0  0  0  0  0
    1.0000    1.0000    1.0000 N   0  0  0  0  0  0  0  0  0  0  0  0
    2.4700    1.0000    1.0000 C   0  0  0  0  0  0  0  0  0  0  0  0
    2.9767    1.0000   -0.4331 C   0  0  0  0  0  0  0  0  0  0  0  0
    4.4970    1.0000   -0.4331 C   0  0  0  0  0  0  0  0  0  0  0  0
    5.1809   -0.2117   -0.4331 C   0  0  0  0  0  0  0  0  0  0  0  0
    6.5716   -0.2177   -0.4344 C   0  0  0  0  0  0  0  0  0  0  0  0
    7.2613    0.9904   -0.4368 C   0  0  0  0  0  0  0  0  0  0  0  0
    6.5787    2.2020   -0.4358 C   0  0  0  0  0  0  0  0  0  0  0  0
    5.1877    2.2080   -0.4330 C   0  0  0  0  0  0  0  0  0  0  0  0
    8.7814    0.9901   -0.4393 C   0  0  0  0  0  0  0  0  0  0  0  0
    9.2526    0.9886   -1.7789 O   0  0  0  0  0  0  0  0  0  0  0  0
   -1.4228   -0.2411    4.2566 C   0  0  0  0  0  0  0  0  0  0  0  0
   -2.1828   -0.2411    5.5729 C   0  0  0  0  0  0  0  0  0  0  0  0
   -1.4228    2.2411    4.2566 C   0  0  0  0  0  0  0  0  0  0  0  0
  1  2  1  0
  2  3  1  0
  2  4  1  0
  2  5  1  0
  5  6  1  0
  6  7  1  0
  7  8  2  0
  7  9  1  0
  9 10  1  0
 10 11  1  0
 11 12  1  0
 12 13  2  0
 13 14  1  0
 14 15  2  0
 15 16  1  0
 16 17  2  0
 17 12  1  0
 15 18  1  0
 18 19  1  0
  5 20  1  0
 20 21  1  0
  5 22  1  0
M  END
$$$$
s_269862____8350638____10953884
     RDKit          3D

 24 24  0  0  0  0  0  0  0  0999 V2000
   -1.8414   -0.6528   -0.8023 F   0  0  0  0  0  0  0  0  0  0  0  0
   -1.2916   -1.5082    0.0556 C   0  0  0  0  0  0  0  0  0  0  0  0
    0.0932   -1.6042    0.1517 C   0  0  0  0  0  0  0  0  0  0  0  0
    0.6777   -2.4961    1.0450 C   0  0  0  0  0  0  0  0  0  0  0  0
   -0.1357   -3.2943    1.8426 C   0  0  0  0  0  0  0  0  0  0  0  0
   -1.5200   -3.1952    1.7432 C   0  0  0  0  0  0  0  0  0  0  0  0
   -2.1079   -2.3040    0.8516 C   0  0  0  0  0  0  0  0  0  0  0  0
    0.9711   -0.7263   -0.7263 C   0  0  0  0  0  0  0  0  0  0  0  0
    1.8198   -1.5750   -1.5750 N   0  0  0  0  0  0  0  0  0  0  0  0
    1.7310   -1.4861   -2.9392 C   0  0  0  0  0  0  0  0  0  0  0  0
    0.9603   -0.7154   -3.4413 O   0  0  0  0  0  0  0  0  0  0  0  0
    2.6085   -2.3637   -3.8168 C   0  0  0  0  0  0  0  0  0  0  0  0
    1.8487    0.1513    0.1513 C   0  0  0  0  0  0  0  0  0  0  0  0
    1.0000    1.0000    1.0000 N   0  0  0  0  0  0  0  0  0  0  0  0
    1.8487    1.8487    1.8487 C   0  0  0  0  0  0  0  0  0  0  0  0
    0.9711    2.7263    2.7263 C   0  0  0  0  0  0  0  0  0  0  0  0
   -0.2238    2.6484    2.6484 O   0  0  0  0  0  0  0  0  0  0  0  0
    1.5444    3.6061    3.6061 N   0  0  0  0  0  0  0  0  0  0  0  0
    0.6957    4.4548    4.4548 C   0  0  0  0  0  0  0  0  0  0  0  0
    0.2000    3.6478    5.6437 C   0  0  0  0  0  0  0  0  0  0  0  0
   -0.5679    4.4157    6.4116 F   0  0  0  0  0  0  0  0  0  0  0  0
   -0.5062    2.6076    5.2100 F   0  0  0  0  0  0  0  0  0  0  0  0
    1.2402    3.2141    6.3498 F   0  0  0  0  0  0  0  0  0  0  0  0
    2.7263    1.0289   -0.7263 C   0  0  0  0  0  0  0  0  0  0  0  0
  1  2  1  0
  2  3  2  0
  3  4  1  0
  4  5  2  0
  5  6  1  0
  6  7  2  0
  7  2  1  0
  3  8  1  0
  8  9  1  0
  9 10  1  0
 10 11  2  0
 10 12  1  0
  8 13  1  0
 13 14  1  0
 14 15  1  0
 15 16  1  0
 16 17  2  0
 16 18  1  0
 18 19  1  0
 19 20  1  0
 20 21  1  0
 20 22  1  0
 20 23  1  0
 13 24  1  0
M  CHG  1  14   1
M  END
$$$$
s_273458b____11769690____11103208
     RDKit          3D

 22 22  0  0  0  0  0  0  0  0999 V2000
   -2.9917    2.9030    2.2411 F   0  0  0  0  0  0  0  0  0  0  0  0
   -1.6617    2.9030    2.2411 C   0  0  0  0  0  0  0  0  0  0  0  0
   -1.2183    2.2760    3.3270 F   0  0  0  0  0  0  0  0  0  0  0  0
   -1.2183    4.1569    2.2411 F   0  0  0  0  0  0  0  0  0  0  0  0
   -1.1550    2.1865    1.0000 C   0  0  0  0  0  0  0  0  0  0  0  0
    0.3150    2.1865    1.0000 N   0  0  0  0  0  0  0  0  0  0  0  0
    1.0000    1.0000    1.0000 C   0  0  0  0  0  0  0  0  0  0  0  0
    0.4000   -0.0392    1.0000 O   0  0  0  0  0  0  0  0  0  0  0  0
    2.3700    1.0000    1.0000 N   0  0  0  0  0  0  0  0  0  0  0  0
    3.1050   -0.2731    1.0000 C   0  0  0  0  0  0  0  0  0  0  0  0
    3.9789   -0.3536    2.2411 C   0  0  0  0  0  0  0  0  0  0  0  0
    4.0832   -1.3910    2.8352 O   0  0  0  0  0  0  0  0  0  0  0  0
    4.6474    0.7582    2.6814 N   0  0  0  0  0  0  0  0  0  0  0  0
    3.9789   -0.3536   -0.2411 C   0  0  0  0  0  0  0  0  0  0  0  0
    4.7390   -1.6702   -0.2411 C   0  0  0  0  0  0  0  0  0  0  0  0
    4.1773   -2.7902   -0.8453 C   0  0  0  0  0  0  0  0  0  0  0  0
    4.8758   -3.9931   -0.8423 C   0  0  0  0  0  0  0  0  0  0  0  0
    6.1270   -4.0694   -0.2393 C   0  0  0  0  0  0  0  0  0  0  0  0
    6.6785   -2.9441    0.3607 C   0  0  0  0  0  0  0  0  0  0  0  0
    5.9897   -1.7356    0.3650 C   0  0  0  0  0  0  0  0  0  0  0  0
   -1.6617    2.9030   -0.2411 C   0  0  0  0  0  0  0  0  0  0  0  0
   -1.1717    2.2100   -1.4413 N   0  0  0  0  0  0  0  0  0  0  0  0
  1  2  1  0
  2  3  1  0
  2  4  1  0
  2  5  1  0
  5  6  1  0
  6  7  1  0
  7  8  2  0
  7  9  1  0
  9 10  1  0
 10 11  1  0
 11 12  2  0
 11 13  1  0
 10 14  1  0
 14 15  1  0
 15 16  2  0
 16 17  1  0
 17 18  2  0
 18 19  1  0
 19 20  2  0
 20 15  1  0
  5 21  1  0
 21 22  1  0
M  CHG  1  22   1
M  END
$$$$
s_276436a____15413916____17057122
     RDKit          3D

 25 25  0  0  0  0  0  0  0  0999 V2000
    1.3560    5.2065   -3.0802 F   0  0  0  0  0  0  0  0  0  0  0  0
    1.6119    4.5758   -1.9376 C   0  0  0  0  0  0  0  0  0  0  0  0
    0.8075    5.0396   -0.9854 F   0  0  0  0  0  0  0  0  0  0  0  0
    2.8782    4.7858   -1.5893 F   0  0  0  0  0  0  0  0  0  0  0  0
    1.3766    3.0850   -2.1180 C   0  0  0  0  0  0  0  0  0  0  0  0
    1.6499    2.4116   -0.8981 O   0  0  0  0  0  0  0  0  0  0  0  0
    0.7075    1.7208   -0.3059 C   0  0  0  0  0  0  0  0  0  0  0  0
   -0.3868    1.6571   -0.7943 O   0  0  0  0  0  0  0  0  0  0  0  0
    1.0000    1.0000    1.0000 C   0  0  0  0  0  0  0  0  0  0  0  0
    1.8487    1.8487    1.8487 N   0  0  0  0  0  0  0  0  0  0  0  0
    3.0831    1.4052    2.2442 C   0  0  0  0  0  0  0  0  0  0  0  0
    3.3356    0.2324    2.2193 O   0  0  0  0  0  0  0  0  0  0  0  0
    4.1329    2.3989    2.7145 C   0  0  0  0  0  0  0  0  0  0  0  0
    4.6634    1.9705    4.0729 C   0  0  0  0  0  0  0  0  0  0  0  0
    5.7132    2.9641    4.5432 C   0  0  0  0  0  0  0  0  0  0  0  0
    3.5200    1.9298    5.0736 C   0  0  0  0  0  0  0  0  0  0  0  0
   -0.3059    0.7075    1.7208 C   0  0  0  0  0  0  0  0  0  0  0  0
   -0.0133   -0.0134    3.0267 C   0  0  0  0  0  0  0  0  0  0  0  0
    0.0419   -1.4031    3.0438 C   0  0  0  0  0  0  0  0  0  0  0  0
    0.3100   -2.0670    4.2362 C   0  0  0  0  0  0  0  0  0  0  0  0
    0.5203   -1.3310    5.3981 C   0  0  0  0  0  0  0  0  0  0  0  0
    0.7804   -1.9713    6.5576 O   0  0  0  0  0  0  0  0  0  0  0  0
    0.4658    0.0590    5.3865 C   0  0  0  0  0  0  0  0  0  0  0  0
    0.1978    0.7176    4.1913 C   0  0  0  0  0  0  0  0  0  0  0  0
    2.2960    2.5550   -3.2063 C   0  0  0  0  0  0  0  0  0  0  0  0
  1  2  1  0
  2  3  1  0
  2  4  1  0
  2  5  1  0
  5  6  1  0
  6  7  1  0
  7  8  2  0
  7  9  1  0
  9 10  1  0
 10 11  1  0
 11 12  2  0
 11 13  1  0
 13 14  1  0
 14 15  1  0
 14 16  1  0
  9 17  1  0
 17 18  1  0
 18 19  2  0
 19 20  1  0
 20 21  2  0
 21 22  1  0
 21 23  1  0
 23 24  2  0
 24 18  1  0
  5 25  1  0
M  END
$$$$
s_11a____10176570____13434880
     RDKit          3D

 22 23  0  0  0  0  0  0  0  0999 V2000
   -1.0083    2.4546   -2.6057 Br  0  0  0  0  0  0  0  0  0  0  0  0
   -1.6617    0.8933   -1.6173 C   0  0  0  0  0  0  0  0  0  0  0  0
   -1.2183   -0.2173   -2.1996 F   0  0  0  0  0  0  0  0  0  0  0  0
   -2.9917    0.8933   -1.6173 F   0  0  0  0  0  0  0  0  0  0  0  0
   -1.1550    0.9517   -0.1855 C   0  0  0  0  0  0  0  0  0  0  0  0
    0.3150    0.9517   -0.1855 N   0  0  0  0  0  0  0  0  0  0  0  0
    1.0000    1.0000    1.0000 C   0  0  0  0  0  0  0  0  0  0  0  0
    0.4000    1.0423    2.0384 O   0  0  0  0  0  0  0  0  0  0  0  0
    2.5204    1.0000    1.0000 C   0  0  0  0  0  0  0  0  0  0  0  0
    3.0402    2.2005    0.2400 C   0  0  0  0  0  0  0  0  0  0  0  0
    4.3396    2.4875    0.8488 N   0  0  0  0  0  0  0  0  0  0  0  0
    4.3711    1.9395    2.1271 C   0  0  0  0  0  0  0  0  0  0  0  0
    5.3123    1.9898    2.9023 O   0  0  0  0  0  0  0  0  0  0  0  0
    3.0392    1.2761    2.3946 C   0  0  0  0  0  0  0  0  0  0  0  0
    5.4436    3.2381    0.2319 C   0  0  0  0  0  0  0  0  0  0  0  0
    6.3540    2.2772   -0.5166 C   0  0  0  0  0  0  0  0  0  0  0  0
    6.1042    1.9938   -1.8557 C   0  0  0  0  0  0  0  0  0  0  0  0
    5.0742    2.5638   -2.4756 F   0  0  0  0  0  0  0  0  0  0  0  0
    6.9274    1.1173   -2.5537 C   0  0  0  0  0  0  0  0  0  0  0  0
    8.0016    0.5295   -1.8940 C   0  0  0  0  0  0  0  0  0  0  0  0
    8.2549    0.8100   -0.5549 C   0  0  0  0  0  0  0  0  0  0  0  0
    7.4288    1.6871    0.1403 C   0  0  0  0  0  0  0  0  0  0  0  0
  1  2  1  0
  2  3  1  0
  2  4  1  0
  2  5  1  0
  5  6  1  0
  6  7  1  0
  7  8  2  0
  7  9  1  0
  9 10  1  0
 10 11  1  0
 11 12  1  0
 12 13  2  0
 12 14  1  0
 14  9  1  0
 11 15  1  0
 15 16  1  0
 16 17  2  0
 17 18  1  0
 17 19  1  0
 19 20  2  0
 20 21  1  0
 21 22  2  0
 22 16  1  0
M  END
$$$$
s_22____4549598____17513450
     RDKit          3D

 22 23  0  0  0  0  0  0  0  0999 V2000
   -2.7802    0.8250    1.7255 S   0  0  0  0  0  0  0  0  0  0  0  0
   -1.5953    2.0458    1.7931 C   0  0  0  0  0  0  0  0  0  0  0  0
   -1.4442    2.3897    3.0470 N   0  0  0  0  0  0  0  0  0  0  0  0
   -2.2456    1.7106    3.9300 C   0  0  0  0  0  0  0  0  0  0  0  0
   -3.0823    0.7736    3.3983 C   0  0  0  0  0  0  0  0  0  0  0  0
   -0.9275    2.5644    0.6727 N   0  0  0  0  0  0  0  0  0  0  0  0
    0.1224    1.8776    0.1224 C   0  0  0  0  0  0  0  0  0  0  0  0
    0.3493    1.9688   -1.0524 O   0  0  0  0  0  0  0  0  0  0  0  0
    1.0000    1.0000    1.0000 C   0  0  0  0  0  0  0  0  0  0  0  0
    1.8487    0.1513    0.1513 N   0  0  0  0  0  0  0  0  0  0  0  0
    1.7598   -1.2129    0.2402 C   0  0  0  0  0  0  0  0  0  0  0  0
    0.9891   -1.7150    1.0109 O   0  0  0  0  0  0  0  0  0  0  0  0
    2.6374   -2.0905   -0.6374 C   0  0  0  0  0  0  0  0  0  0  0  0
    1.8776    1.8776    1.8776 C   0  0  0  0  0  0  0  0  0  0  0  0
    2.8824    1.0100    2.6179 C   0  0  0  0  0  0  0  0  0  0  0  0
    4.1193    0.7484    2.0377 C   0  0  0  0  0  0  0  0  0  0  0  0
    5.0422   -0.0443    2.7118 C   0  0  0  0  0  0  0  0  0  0  0  0
    4.7159   -0.5657    3.9597 C   0  0  0  0  0  0  0  0  0  0  0  0
    5.6084   -1.3358    4.6172 O   0  0  0  0  0  0  0  0  0  0  0  0
    3.4802   -0.3074    4.5442 C   0  0  0  0  0  0  0  0  0  0  0  0
    2.5613    0.4862    3.8660 C   0  0  0  0  0  0  0  0  0  0  0  0
   -1.3548    3.8444    0.0898 C   0  0  0  0  0  0  0  0  0  0  0  0
  1  2  1  0
  2  3  2  0
  3  4  1  0
  4  5  2  0
  5  1  1  0
  2  6  1  0
  6  7  1  0
  7  8  2  0
  7  9  1  0
  9 10  1  0
 10 11  1  0
 11 12  2  0
 11 13  1  0
  9 14  1  0
 14 15  1  0
 15 16  2  0
 16 17  1  0
 17 18  2  0
 18 19  1  0
 18 20  1  0
 20 21  2  0
 21 15  1  0
  6 22  1  0
M  END
$$$$
s_527a____16738066____17513452
     RDKit          3D

 24 24  0  0  0  0  0  0  0  0999 V2000
   -2.0279    3.7167    0.7025 F   0  0  0  0  0  0  0  0  0  0  0  0
   -1.1082    3.7357   -0.2580 C   0  0  0  0  0  0  0  0  0  0  0  0
   -0.2604    4.7371   -0.0403 F   0  0  0  0  0  0  0  0  0  0  0  0
   -1.7860    3.9295   -1.6047 C   0  0  0  0  0  0  0  0  0  0  0  0
   -2.4510    5.0813   -1.6047 F   0  0  0  0  0  0  0  0  0  0  0  0
   -0.8663    3.9485   -2.5653 F   0  0  0  0  0  0  0  0  0  0  0  0
   -0.3482    2.4194   -0.2580 C   0  0  0  0  0  0  0  0  0  0  0  0
    0.2850    2.2384    1.0000 O   0  0  0  0  0  0  0  0  0  0  0  0
    1.0000    1.0000    1.0000 N   0  0  0  0  0  0  0  0  0  0  0  0
    2.3700    1.0000    1.0000 C   0  0  0  0  0  0  0  0  0  0  0  0
    2.9700    2.0392    1.0000 O   0  0  0  0  0  0  0  0  0  0  0  0
    3.1300   -0.3164    1.0000 C   0  0  0  0  0  0  0  0  0  0  0  0
    4.5752   -0.0477    1.0000 N   0  0  0  0  0  0  0  0  0  0  0  0
    5.3571   -0.5058    2.0275 C   0  0  0  0  0  0  0  0  0  0  0  0
    4.8622   -1.1263    2.9275 O   0  0  0  0  0  0  0  0  0  0  0  0
    6.8515   -0.2281    2.0275 C   0  0  0  0  0  0  0  0  0  0  0  0
    2.7628   -1.1134   -0.2411 C   0  0  0  0  0  0  0  0  0  0  0  0
    3.5228   -2.4298   -0.2411 C   0  0  0  0  0  0  0  0  0  0  0  0
    2.9568   -3.5469    0.3644 C   0  0  0  0  0  0  0  0  0  0  0  0
    3.6482   -4.7537    0.3662 C   0  0  0  0  0  0  0  0  0  0  0  0
    4.8987   -4.8280   -0.2391 C   0  0  0  0  0  0  0  0  0  0  0  0
    5.5734   -5.9972   -0.2393 O   0  0  0  0  0  0  0  0  0  0  0  0
    5.4695   -3.7138   -0.8457 C   0  0  0  0  0  0  0  0  0  0  0  0
    4.7735   -2.5097   -0.8449 C   0  0  0  0  0  0  0  0  0  0  0  0
  1  2  1  0
  2  3  1  0
  2  4  1  0
  4  5  1  0
  4  6  1  0
  2  7  1  0
  7  8  1  0
  8  9  1  0
  9 10  1  0
 10 11  2  0
 10 12  1  0
 12 13  1  0
 13 14  1  0
 14 15  2  0
 14 16  1  0
 12 17  1  0
 17 18  1  0
 18 19  2  0
 19 20  1  0
 20 21  2  0
 21 22  1  0
 21 23  1  0
 23 24  2  0
 24 18  1  0
M  END
$$$$
s_11a____14594094____651944
     RDKit          3D

 22 22  0  0  0  0  0  0  0  0999 V2000
    3.4317   -0.8389   -0.7065 S   0  0  0  0  0  0  0  0  0  0  0  0
    4.3216   -2.3803   -0.3775 C   0  0  0  0  0  0  0  0  0  0  0  0
    4.6535   -2.9552   -1.5300 F   0  0  0  0  0  0  0  0  0  0  0  0
    5.4230   -2.1162    0.3196 F   0  0  0  0  0  0  0  0  0  0  0  0
    3.5421   -3.2021    0.3196 F   0  0  0  0  0  0  0  0  0  0  0  0
    3.1300   -0.3164    1.0000 C   0  0  0  0  0  0  0  0  0  0  0  0
    2.3700    1.0000    1.0000 C   0  0  0  0  0  0  0  0  0  0  0  0
    2.9700    2.0392    1.0000 O   0  0  0  0  0  0  0  0  0  0  0  0
    1.0000    1.0000    1.0000 N   0  0  0  0  0  0  0  0  0  0  0  0
    0.2650    2.2731    1.0000 C   0  0  0  0  0  0  0  0  0  0  0  0
   -0.8659    2.2052   -0.0133 C   0  0  0  0  0  0  0  0  0  0  0  0
   -1.3295    1.1431   -0.3248 O   0  0  0  0  0  0  0  0  0  0  0  0
   -1.3559    3.3566   -0.5711 N   0  0  0  0  0  0  0  0  0  0  0  0
   -2.5847    3.3178   -1.3771 C   0  0  0  0  0  0  0  0  0  0  0  0
   -0.6529    4.6308   -0.3636 C   0  0  0  0  0  0  0  0  0  0  0  0
   -0.3095    2.5264    2.3842 C   0  0  0  0  0  0  0  0  0  0  0  0
    0.6979    3.3031    3.2167 C   0  0  0  0  0  0  0  0  0  0  0  0
    1.6339    2.6164    3.9831 C   0  0  0  0  0  0  0  0  0  0  0  0
    2.5534    3.3310    4.7440 C   0  0  0  0  0  0  0  0  0  0  0  0
    2.5333    4.7217    4.7338 C   0  0  0  0  0  0  0  0  0  0  0  0
    1.5942    5.3970    3.9641 C   0  0  0  0  0  0  0  0  0  0  0  0
    0.6690    4.6940    3.1994 C   0  0  0  0  0  0  0  0  0  0  0  0
  1  2  1  0
  2  3  1  0
  2  4  1  0
  2  5  1  0
  1  6  1  0
  6  7  1  0
  7  8  2  0
  7  9  1  0
  9 10  1  0
 10 11  1  0
 11 12  2  0
 11 13  1  0
 13 14  1  0
 13 15  1  0
 10 16  1  0
 16 17  1  0
 17 18  2  0
 18 19  1  0
 19 20  2  0
 20 21  1  0
 21 22  2  0
 22 17  1  0
M  END
$$$$
s_273458b____11769690____11096048
     RDKit          3D

 25 25  0  0  0  0  0  0  0  0999 V2000
   -1.8992    3.3270    3.4696 F   0  0  0  0  0  0  0  0  0  0  0  0
   -2.6639    2.2411    3.5400 C   0  0  0  0  0  0  0  0  0  0  0  0
   -3.5281    2.2411    2.5291 F   0  0  0  0  0  0  0  0  0  0  0  0
   -3.3289    2.2411    4.6918 F   0  0  0  0  0  0  0  0  0  0  0  0
   -1.7900    1.0000    3.4595 C   0  0  0  0  0  0  0  0  0  0  0  0
   -1.0550    1.0000    2.1865 N   0  0  0  0  0  0  0  0  0  0  0  0
    0.3150    1.0000    2.1865 C   0  0  0  0  0  0  0  0  0  0  0  0
    0.9150    1.0000    3.2257 O   0  0  0  0  0  0  0  0  0  0  0  0
    1.0000    1.0000    1.0000 N   0  0  0  0  0  0  0  0  0  0  0  0
    2.4700    1.0000    1.0000 C   0  0  0  0  0  0  0  0  0  0  0  0
    2.9768   -0.4335    1.0000 C   0  0  0  0  0  0  0  0  0  0  0  0
    3.2087   -1.0892   -0.2051 C   0  0  0  0  0  0  0  0  0  0  0  0
    2.9882   -0.4677   -1.3834 O   0  0  0  0  0  0  0  0  0  0  0  0
    3.2303   -1.1524   -2.6036 C   0  0  0  0  0  0  0  0  0  0  0  0
    2.9055   -0.2361   -3.7720 C   0  0  0  0  0  0  0  0  0  0  0  0
    3.6722   -2.4011   -0.2052 C   0  0  0  0  0  0  0  0  0  0  0  0
    3.9045   -3.0568    1.0000 C   0  0  0  0  0  0  0  0  0  0  0  0
    3.6732   -2.4005    2.2048 C   0  0  0  0  0  0  0  0  0  0  0  0
    3.2099   -1.0888    2.2045 C   0  0  0  0  0  0  0  0  0  0  0  0
    0.2650    1.0000   -0.2731 C   0  0  0  0  0  0  0  0  0  0  0  0
    0.0117    2.4331   -0.7118 C   0  0  0  0  0  0  0  0  0  0  0  0
   -0.7558    3.1025    0.2778 O   0  0  0  0  0  0  0  0  0  0  0  0
   -0.7483    2.4331   -2.0282 C   0  0  0  0  0  0  0  0  0  0  0  0
   -2.6639   -0.2411    3.5400 C   0  0  0  0  0  0  0  0  0  0  0  0
   -1.8187   -1.4413    3.4622 N   0  0  0  0  0  0  0  0  0  0  0  0
  1  2  1  0
  2  3  1  0
  2  4  1  0
  2  5  1  0
  5  6  1  0
  6  7  1  0
  7  8  2  0
  7  9  1  0
  9 10  1  0
 10 11  1  0
 11 12  2  0
 12 13  1  0
 13 14  1  0
 14 15  1  0
 12 16  1  0
 16 17  2  0
 17 18  1  0
 18 19  2  0
 19 11  1  0
  9 20  1  0
 20 21  1  0
 21 22  1  0
 21 23  1  0
  5 24  1  0
 24 25  1  0
M  CHG  1  25   1
M  END
$$$$
s_22____10176574____12102936
     RDKit          3D

 19 19  0  0  0  0  0  0  0  0999 V2000
   -0.8876    4.6692    2.4576 Br  0  0  0  0  0  0  0  0  0  0  0  0
   -1.6584    3.6228    0.9904 C   0  0  0  0  0  0  0  0  0  0  0  0
   -1.2993    4.1588   -0.1727 F   0  0  0  0  0  0  0  0  0  0  0  0
   -2.9846    3.6287    1.0906 F   0  0  0  0  0  0  0  0  0  0  0  0
   -1.1508    2.1922    1.0672 C   0  0  0  0  0  0  0  0  0  0  0  0
    0.3150    2.1857    0.9564 N   0  0  0  0  0  0  0  0  0  0  0  0
    1.0000    1.0000    1.0000 C   0  0  0  0  0  0  0  0  0  0  0  0
    0.4000   -0.0385    1.0382 O   0  0  0  0  0  0  0  0  0  0  0  0
    2.4505    1.0000    1.0000 C   0  0  0  0  0  0  0  0  0  0  0  0
    3.1612    2.1405    0.5368 C   0  0  0  0  0  0  0  0  0  0  0  0
    2.5695    3.1293    0.1348 O   0  0  0  0  0  0  0  0  0  0  0  0
    4.5324    2.1181    0.5453 N   0  0  0  0  0  0  0  0  0  0  0  0
    5.2302    1.0241    0.9894 C   0  0  0  0  0  0  0  0  0  0  0  0
    4.5565   -0.0827    1.4392 C   0  0  0  0  0  0  0  0  0  0  0  0
    5.2373   -1.2160    1.8996 N   0  0  0  0  0  0  0  0  0  0  0  0
    6.3647   -1.0740    2.6648 C   0  0  0  0  0  0  0  0  0  0  0  0
    6.5745   -0.0409    3.2382 O   0  0  0  0  0  0  0  0  0  0  0  0
    7.3499   -2.2249    2.7876 C   0  0  0  0  0  0  0  0  0  0  0  0
    3.1359   -0.0999    1.4464 C   0  0  0  0  0  0  0  0  0  0  0  0
  1  2  1  0
  2  3  1  0
  2  4  1  0
  2  5  1  0
  5  6  1  0
  6  7  1  0
  7  8  2  0
  7  9  1  0
  9 10  1  0
 10 11  2  0
 10 12  1  0
 12 13  1  0
 13 14  2  0
 14 15  1  0
 15 16  1  0
 16 17  2  0
 16 18  1  0
 14 19  1  0
  9 19  2  0
M  END
$$$$
s_22____12206138____651936
     RDKit          3D

 23 23  0  0  0  0  0  0  0  0999 V2000
    2.6927   -1.2655    2.4779 S   0  0  0  0  0  0  0  0  0  0  0  0
    3.5078   -0.2383    3.7255 C   0  0  0  0  0  0  0  0  0  0  0  0
    2.8589    0.9169    3.8415 F   0  0  0  0  0  0  0  0  0  0  0  0
    3.4991   -0.8710    4.8953 F   0  0  0  0  0  0  0  0  0  0  0  0
    4.7642   -0.0058    3.3565 F   0  0  0  0  0  0  0  0  0  0  0  0
    3.1300   -0.3164    1.0000 C   0  0  0  0  0  0  0  0  0  0  0  0
    2.3700    1.0000    1.0000 C   0  0  0  0  0  0  0  0  0  0  0  0
    2.9700    2.0392    1.0000 O   0  0  0  0  0  0  0  0  0  0  0  0
    1.0000    1.0000    1.0000 N   0  0  0  0  0  0  0  0  0  0  0  0
    0.2650    2.2731    1.0000 C   0  0  0  0  0  0  0  0  0  0  0  0
   -0.6089    2.3536    2.2411 C   0  0  0  0  0  0  0  0  0  0  0  0
   -0.7132    3.3910    2.8352 O   0  0  0  0  0  0  0  0  0  0  0  0
   -1.2481    1.2905    2.6621 O   0  0  0  0  0  0  0  0  0  0  0  0
   -2.0645    1.3657    3.8216 C   0  0  0  0  0  0  0  0  0  0  0  0
   -0.6089    2.3536   -0.2411 C   0  0  0  0  0  0  0  0  0  0  0  0
   -1.3691    3.6703   -0.2411 C   0  0  0  0  0  0  0  0  0  0  0  0
   -0.8130    4.7945   -0.8436 C   0  0  0  0  0  0  0  0  0  0  0  0
    0.4008    4.7337   -1.4322 O   0  0  0  0  0  0  0  0  0  0  0  0
   -1.5086    5.9995   -0.8435 C   0  0  0  0  0  0  0  0  0  0  0  0
   -2.7604    6.0800   -0.2412 C   0  0  0  0  0  0  0  0  0  0  0  0
   -3.3163    4.9555    0.3606 C   0  0  0  0  0  0  0  0  0  0  0  0
   -2.6208    3.7507    0.3600 C   0  0  0  0  0  0  0  0  0  0  0  0
    2.7628   -1.1134   -0.2411 C   0  0  0  0  0  0  0  0  0  0  0  0
  1  2  1  0
  2  3  1  0
  2  4  1  0
  2  5  1  0
  1  6  1  0
  6  7  1  0
  7  8  2  0
  7  9  1  0
  9 10  1  0
 10 11  1  0
 11 12  2  0
 11 13  1  0
 13 14  1  0
 10 15  1  0
 15 16  1  0
 16 17  2  0
 17 18  1  0
 17 19  1  0
 19 20  2  0
 20 21  1  0
 21 22  2  0
 22 16  1  0
  6 23  1  0
M  END
$$$$
s_487a____4915466____1735730
     RDKit          3D

 19 19  0  0  0  0  0  0  0  0999 V2000
   -2.9917    3.6195    1.0000 F   0  0  0  0  0  0  0  0  0  0  0  0
   -1.6617    3.6195    1.0000 C   0  0  0  0  0  0  0  0  0  0  0  0
   -1.2183    4.2465    2.0859 F   0  0  0  0  0  0  0  0  0  0  0  0
   -1.2183    4.2465   -0.0859 F   0  0  0  0  0  0  0  0  0  0  0  0
   -1.1550    2.1865    1.0000 C   0  0  0  0  0  0  0  0  0  0  0  0
    0.3150    2.1865    1.0000 N   0  0  0  0  0  0  0  0  0  0  0  0
    1.0000    1.0000    1.0000 C   0  0  0  0  0  0  0  0  0  0  0  0
    0.4000   -0.0392    1.0000 O   0  0  0  0  0  0  0  0  0  0  0  0
    2.3700    1.0000    1.0000 N   0  0  0  0  0  0  0  0  0  0  0  0
    3.1050   -0.2731    1.0000 C   0  0  0  0  0  0  0  0  0  0  0  0
    3.1428   -0.8363   -0.4113 C   0  0  0  0  0  0  0  0  0  0  0  0
    1.8167   -1.0554   -0.8692 O   0  0  0  0  0  0  0  0  0  0  0  0
    3.8403    0.1516   -1.3326 C   0  0  0  0  0  0  0  0  0  0  0  0
    5.1575    0.5195   -1.0780 C   0  0  0  0  0  0  0  0  0  0  0  0
    5.7917    1.4244   -1.9231 C   0  0  0  0  0  0  0  0  0  0  0  0
    5.1095    1.9531   -3.0138 C   0  0  0  0  0  0  0  0  0  0  0  0
    3.7942    1.5780   -3.2587 C   0  0  0  0  0  0  0  0  0  0  0  0
    3.1488    0.6746   -2.4207 C   0  0  0  0  0  0  0  0  0  0  0  0
    3.9028   -2.1526   -0.4113 C   0  0  0  0  0  0  0  0  0  0  0  0
  1  2  1  0
  2  3  1  0
  2  4  1  0
  2  5  1  0
  5  6  1  0
  6  7  1  0
  7  8  2  0
  7  9  1  0
  9 10  1  0
 10 11  1  0
 11 12  1  0
 11 13  1  0
 13 14  2  0
 14 15  1  0
 15 16  2  0
 16 17  1  0
 17 18  2  0
 18 13  1  0
 11 19  1  0
M  END
$$$$
s_2430a____11944322____11566480
     RDKit          3D

 27 27  0  0  0  0  0  0  0  0999 V2000
    0.9386    1.8945   -5.8005 F   0  0  0  0  0  0  0  0  0  0  0  0
    0.1295    2.0468   -4.7564 C   0  0  0  0  0  0  0  0  0  0  0  0
   -0.9875    2.8692   -4.8687 C   0  0  0  0  0  0  0  0  0  0  0  0
   -1.2430    3.5066   -6.0317 O   0  0  0  0  0  0  0  0  0  0  0  0
   -2.3829    4.3456   -6.1459 C   0  0  0  0  0  0  0  0  0  0  0  0
   -1.8489    3.0433   -3.7905 C   0  0  0  0  0  0  0  0  0  0  0  0
   -1.5808    2.3844   -2.5951 C   0  0  0  0  0  0  0  0  0  0  0  0
   -0.4625    1.5639   -2.4890 C   0  0  0  0  0  0  0  0  0  0  0  0
    0.4018    1.3859   -3.5636 C   0  0  0  0  0  0  0  0  0  0  0  0
   -0.1701    0.8432   -1.1834 C   0  0  0  0  0  0  0  0  0  0  0  0
    0.7075    1.7208   -0.3059 C   0  0  0  0  0  0  0  0  0  0  0  0
   -0.0133    3.0267   -0.0133 C   0  0  0  0  0  0  0  0  0  0  0  0
    0.4749    4.0699   -0.3499 O   0  0  0  0  0  0  0  0  0  0  0  0
   -1.2204    3.0126    0.6345 N   0  0  0  0  0  0  0  0  0  0  0  0
   -1.9175    4.2755    0.9174 C   0  0  0  0  0  0  0  0  0  0  0  0
    1.0000    1.0000    1.0000 C   0  0  0  0  0  0  0  0  0  0  0  0
    1.8487    1.8487    1.8487 N   0  0  0  0  0  0  0  0  0  0  0  0
    2.2442    1.4052    3.0831 C   0  0  0  0  0  0  0  0  0  0  0  0
    1.8978    0.3240    3.4716 O   0  0  0  0  0  0  0  0  0  0  0  0
    3.0352    2.1962    3.8741 N   0  0  0  0  0  0  0  0  0  0  0  0
    3.4595    1.7204    5.1986 C   0  0  0  0  0  0  0  0  0  0  0  0
    4.3223    2.7796    5.8650 C   0  0  0  0  0  0  0  0  0  0  0  0
    4.7062    2.3491    7.0634 F   0  0  0  0  0  0  0  0  0  0  0  0
    5.3945    3.0149    5.1141 F   0  0  0  0  0  0  0  0  0  0  0  0
    3.6211    3.9016    6.0007 F   0  0  0  0  0  0  0  0  0  0  0  0
    2.2342    1.4514    6.0569 C   0  0  0  0  0  0  0  0  0  0  0  0
    4.2608    0.4381    5.0436 C   0  0  0  0  0  0  0  0  0  0  0  0
  1  2  1  0
  2  3  2  0
  3  4  1  0
  4  5  1  0
  3  6  1  0
  6  7  2  0
  7  8  1  0
  8  9  2  0
  9  2  1  0
  8 10  1  0
 10 11  1  0
 11 12  1  0
 12 13  2  0
 12 14  1  0
 14 15  1  0
 11 16  1  0
 16 17  1  0
 17 18  1  0
 18 19  2  0
 18 20  1  0
 20 21  1  0
 21 22  1  0
 22 23  1  0
 22 24  1  0
 22 25  1  0
 21 26  1  0
 21 27  1  0
M  END
$$$$
