s_22____10176574____17513450
          04022015103D 1   1.00000     0.00000     0
            
 36 36  0  0  0  0            999 V2000
   -3.6217   -0.4331    2.1865 Br  0  0  0  0  0  0  0  0  0  0  0  0
   -1.6617   -0.4331    2.1865 C   0  0  0  0  0  0  0  0  0  0  0  0
   -1.2183   -1.0600    1.1005 F   0  0  0  0  0  0  0  0  0  0  0  0
   -1.2183   -1.0600    3.2724 F   0  0  0  0  0  0  0  0  0  0  0  0
   -1.1550    1.0000    2.1865 C   0  0  0  0  0  0  0  0  0  0  0  0
    0.3150    1.0000    2.1865 N   0  0  0  0  0  0  0  0  0  0  0  0
    1.0000    1.0000    1.0000 C   0  0  0  0  0  0  0  0  0  0  0  0
    0.4000    1.0000   -0.0392 O   0  0  0  0  0  0  0  0  0  0  0  0
    2.5200    1.0000    1.0000 C   0  0  3  0  0  0  0  0  0  0  0  0
    3.0100    1.6930   -0.2002 N   0  0  0  0  0  0  0  0  0  0  0  0
    3.2383    3.0434   -0.1663 C   0  0  0  0  0  0  0  0  0  0  0  0
    3.0383    3.6605    0.8432 O   0  0  0  0  0  0  0  0  0  0  0  0
    3.7450    3.7599   -1.4074 C   0  0  0  0  0  0  0  0  0  0  0  0
    3.0267   -0.4331    1.0000 C   0  0  0  0  0  0  0  0  0  0  0  0
    4.5467   -0.4331    1.0000 C   0  0  0  0  0  0  0  0  0  0  0  0
    5.2311   -0.4331    2.2110 C   0  0  0  0  0  0  0  0  0  0  0  0
    6.6219   -0.4338    2.2159 C   0  0  0  0  0  0  0  0  0  0  0  0
    7.3116   -0.4351    1.0075 C   0  0  0  0  0  0  0  0  0  0  0  0
    8.7316   -0.4355    1.0077 O   0  0  0  0  0  0  0  0  0  0  0  0
    6.6320   -0.4347   -0.2063 C   0  0  0  0  0  0  0  0  0  0  0  0
    5.2412   -0.4344   -0.2053 C   0  0  0  0  0  0  0  0  0  0  0  0
   -1.4883    1.4714    1.3700 H   0  0  0  0  0  0  0  0  0  0  0  0
   -1.4883    1.4714    3.0030 H   0  0  0  0  0  0  0  0  0  0  0  0
    0.8150    1.0000    3.0525 H   0  0  0  0  0  0  0  0  0  0  0  0
    2.8533    1.4714    1.8165 H   0  0  0  0  0  0  0  0  0  0  0  0
    3.1767    1.1787   -1.0415 H   0  0  0  0  0  0  0  0  0  0  0  0
    3.8561    3.1005   -2.1510 H   0  0  0  0  0  0  0  0  0  0  0  0
    3.0863    4.4614   -1.6796 H   0  0  0  0  0  0  0  0  0  0  0  0
    4.6259    4.1892   -1.2082 H   0  0  0  0  0  0  0  0  0  0  0  0
    2.6933   -0.9045    1.8165 H   0  0  0  0  0  0  0  0  0  0  0  0
    2.6933   -0.9045    0.1835 H   0  0  0  0  0  0  0  0  0  0  0  0
    4.7256   -0.4325    3.0738 H   0  0  0  0  0  0  0  0  0  0  0  0
    7.1226   -0.4335    3.0815 H   0  0  0  0  0  0  0  0  0  0  0  0
    9.2317   -0.4364    0.1417 H   0  0  0  0  0  0  0  0  0  0  0  0
    7.1374   -0.4347   -1.0692 H   0  0  0  0  0  0  0  0  0  0  0  0
    4.7405   -0.4351   -1.0710 H   0  0  0  0  0  0  0  0  0  0  0  0
  1  2  1  0  0  0  0
  2  3  1  0  0  0  0
  2  4  1  0  0  0  0
  2  5  1  0  0  0  0
  5  6  1  0  0  0  0
  6  7  1  0  0  0  0
  7  8  2  0  0  0  0
  7  9  1  0  0  0  0
  9 10  1  0  0  0  0
 10 11  1  0  0  0  0
 11 12  2  0  0  0  0
 11 13  1  0  0  0  0
  9 14  1  0  0  0  0
 14 15  1  0  0  0  0
 15 16  1  0  0  0  0
 16 17  2  0  0  0  0
 17 18  1  0  0  0  0
 18 19  1  0  0  0  0
 18 20  2  0  0  0  0
 20 21  1  0  0  0  0
 21 15  2  0  0  0  0
  5 22  1  0  0  0  0
  5 23  1  0  0  0  0
  6 24  1  0  0  0  0
  9 25  1  0  0  0  0
 10 26  1  0  0  0  0
 13 27  1  0  0  0  0
 13 28  1  0  0  0  0
 13 29  1  0  0  0  0
 14 30  1  0  0  0  0
 14 31  1  0  0  0  0
 16 32  1  0  0  0  0
 17 33  1  0  0  0  0
 19 34  1  0  0  0  0
 20 35  1  0  0  0  0
 21 36  1  0  0  0  0
M  END
>  <result-rank>
1

>  <similarity>
0.998

>  <query-name>
LIG_A_1101_2_02

>  <query-smiles>
BrC#CCNC(=O)[C@@H](NC(=O)C)Cc1ccc(O)cc1

>  <source>
REALspace_2019-12

>  <similarity-descriptor>
1.000;0.986;0.986;0.999;1.000;1.000;1.000;1.000;1.000;1.000;1.000;1.000;0.0

>  <similarity-descriptor-smiles>
c1ccccc1;BrC(F)F;BrC(F)F;C;N;C=O;C;N;C=O;C;C;O;

>  <reaction-name>
s_22

>  <reagent1-name>
10176574

>  <reagent1-smiles>
[R1*]NCC(Br)(F)F

>  <reagent2-name>
17513450

>  <reagent2-smiles>
[R1*]C(=O)C(NC(=O)C)Cc1ccc(O)cc1

$$$$
s_22____8124984____17513450
          04022015103D 1   1.00000     0.00000     0
            
 39 39  0  0  0  0            999 V2000
   -1.1530   -1.2257    2.1865 O   0  0  0  0  0  0  0  0  0  0  0  0
   -1.7530   -0.1865    2.1865 C   0  0  0  0  0  0  0  0  0  0  0  0
   -1.0680    1.0000    2.1865 N   0  0  0  0  0  0  0  0  0  0  0  0
    0.3150    1.0000    2.1865 N   0  0  0  0  0  0  0  0  0  0  0  0
    1.0000    1.0000    1.0000 C   0  0  0  0  0  0  0  0  0  0  0  0
    0.4000    1.0000   -0.0392 O   0  0  0  0  0  0  0  0  0  0  0  0
    2.5200    1.0000    1.0000 C   0  0  3  0  0  0  0  0  0  0  0  0
    3.0100    1.0000   -0.3859 N   0  0  0  0  0  0  0  0  0  0  0  0
    3.7976    2.0275   -0.8340 C   0  0  0  0  0  0  0  0  0  0  0  0
    4.0875    2.9275   -0.0951 O   0  0  0  0  0  0  0  0  0  0  0  0
    4.3043    2.0275   -2.2671 C   0  0  0  0  0  0  0  0  0  0  0  0
    3.0267   -0.2411    1.7165 C   0  0  0  0  0  0  0  0  0  0  0  0
    4.5467   -0.2411    1.7165 C   0  0  0  0  0  0  0  0  0  0  0  0
    5.2311    0.3644    2.7653 C   0  0  0  0  0  0  0  0  0  0  0  0
    6.6219    0.3662    2.7699 C   0  0  0  0  0  0  0  0  0  0  0  0
    7.3116   -0.2391    1.7241 C   0  0  0  0  0  0  0  0  0  0  0  0
    8.6614   -0.2393    1.7244 O   0  0  0  0  0  0  0  0  0  0  0  0
    6.6320   -0.8457    0.6727 C   0  0  0  0  0  0  0  0  0  0  0  0
    5.2412   -0.8449    0.6734 C   0  0  0  0  0  0  0  0  0  0  0  0
   -1.8030    2.2731    2.1865 C   0  0  0  0  0  0  0  0  0  0  0  0
   -3.1230   -0.1865    2.1865 N   0  0  0  0  0  0  0  0  0  0  0  0
    0.8150    1.0000    3.0525 H   0  0  0  0  0  0  0  0  0  0  0  0
    2.8533    1.8165    1.4714 H   0  0  0  0  0  0  0  0  0  0  0  0
    2.7684    0.2500   -1.0017 H   0  0  0  0  0  0  0  0  0  0  0  0
    3.9710    1.2110   -2.7385 H   0  0  0  0  0  0  0  0  0  0  0  0
    3.9710    2.8440   -2.7385 H   0  0  0  0  0  0  0  0  0  0  0  0
    5.3043    2.0275   -2.2671 H   0  0  0  0  0  0  0  0  0  0  0  0
    2.6933   -0.2411    2.6593 H   0  0  0  0  0  0  0  0  0  0  0  0
    2.6933   -1.0576    1.2451 H   0  0  0  0  0  0  0  0  0  0  0  0
    4.7256    0.7963    3.5122 H   0  0  0  0  0  0  0  0  0  0  0  0
    7.1226    0.7993    3.5194 H   0  0  0  0  0  0  0  0  0  0  0  0
    9.1615   -0.6731    0.9749 H   0  0  0  0  0  0  0  0  0  0  0  0
    7.1374   -1.2771   -0.0746 H   0  0  0  0  0  0  0  0  0  0  0  0
    4.7405   -1.2783   -0.0759 H   0  0  0  0  0  0  0  0  0  0  0  0
   -2.7862    2.0903    2.1865 H   0  0  0  0  0  0  0  0  0  0  0  0
   -1.5614    2.7974    3.0030 H   0  0  0  0  0  0  0  0  0  0  0  0
   -1.5614    2.7974    1.3700 H   0  0  0  0  0  0  0  0  0  0  0  0
   -3.6230    0.6796    2.1865 H   0  0  0  0  0  0  0  0  0  0  0  0
   -3.6230   -1.0525    2.1865 H   0  0  0  0  0  0  0  0  0  0  0  0
  1  2  2  0  0  0  0
  2  3  1  0  0  0  0
  3  4  1  0  0  0  0
  4  5  1  0  0  0  0
  5  6  2  0  0  0  0
  5  7  1  0  0  0  0
  7  8  1  0  0  0  0
  8  9  1  0  0  0  0
  9 10  2  0  0  0  0
  9 11  1  0  0  0  0
  7 12  1  0  0  0  0
 12 13  1  0  0  0  0
 13 14  1  0  0  0  0
 14 15  2  0  0  0  0
 15 16  1  0  0  0  0
 16 17  1  0  0  0  0
 16 18  2  0  0  0  0
 18 19  1  0  0  0  0
 19 13  2  0  0  0  0
  3 20  1  0  0  0  0
  2 21  1  0  0  0  0
  4 22  1  0  0  0  0
  7 23  1  0  0  0  0
  8 24  1  0  0  0  0
 11 25  1  0  0  0  0
 11 26  1  0  0  0  0
 11 27  1  0  0  0  0
 12 28  1  0  0  0  0
 12 29  1  0  0  0  0
 14 30  1  0  0  0  0
 15 31  1  0  0  0  0
 17 32  1  0  0  0  0
 18 33  1  0  0  0  0
 19 34  1  0  0  0  0
 20 35  1  0  0  0  0
 20 36  1  0  0  0  0
 20 37  1  0  0  0  0
 21 38  1  0  0  0  0
 21 39  1  0  0  0  0
M  END
>  <result-rank>
2

>  <similarity>
0.961

>  <query-name>
LIG_A_1101_2_02

>  <query-smiles>
BrC#CCNC(=O)[C@@H](NC(=O)C)Cc1ccc(O)cc1

>  <source>
REALspace_2019-12

>  <similarity-descriptor>
1.000;0.904;0.904;0.904;0.984;1.000;1.000;1.000;1.000;1.000;1.000;1.000;0.154

>  <similarity-descriptor-smiles>
c1ccccc1;NC;NC;NC;N;C=O;C;N;C=O;C;C;O;O=C.N

>  <reaction-name>
s_22

>  <reagent1-name>
8124984

>  <reagent1-smiles>
[R1*]NN(C(=O)N)C

>  <reagent2-name>
17513450

>  <reagent2-smiles>
[R1*]C(=O)C(NC(=O)C)Cc1ccc(O)cc1

$$$$
s_22____6361186____17513450
          04022015103D 1   1.00000     0.00000     0
            
 43 43  0  0  0  0            999 V2000
    0.4000    1.0000   -0.0392 O   0  0  0  0  0  0  0  0  0  0  0  0
    1.0000    1.0000    1.0000 C   0  0  0  0  0  0  0  0  0  0  0  0
    0.3150    1.0000    2.1865 N   0  0  0  0  0  0  0  0  0  0  0  0
   -1.1550    1.0000    2.1865 C   0  0  0  0  0  0  0  0  0  0  0  0
   -1.6617    1.0000    3.6195 C   0  0  0  0  0  0  0  0  0  0  0  0
   -1.1883    2.1594    4.2889 O   0  0  0  0  0  0  0  0  0  0  0  0
   -3.1817    1.0000    3.6195 C   0  0  0  0  0  0  0  0  0  0  0  0
   -1.1550   -0.2411    4.3361 C   0  0  0  0  0  0  0  0  0  0  0  0
    2.5200    1.0000    1.0000 C   0  0  3  0  0  0  0  0  0  0  0  0
    3.0100    1.0000   -0.3859 N   0  0  0  0  0  0  0  0  0  0  0  0
    3.7976    2.0275   -0.8340 C   0  0  0  0  0  0  0  0  0  0  0  0
    4.0875    2.9275   -0.0951 O   0  0  0  0  0  0  0  0  0  0  0  0
    4.3043    2.0275   -2.2671 C   0  0  0  0  0  0  0  0  0  0  0  0
    3.0267   -0.2411    1.7165 C   0  0  0  0  0  0  0  0  0  0  0  0
    4.5467   -0.2411    1.7165 C   0  0  0  0  0  0  0  0  0  0  0  0
    5.2311    0.3644    2.7653 C   0  0  0  0  0  0  0  0  0  0  0  0
    6.6219    0.3662    2.7699 C   0  0  0  0  0  0  0  0  0  0  0  0
    7.3116   -0.2391    1.7241 C   0  0  0  0  0  0  0  0  0  0  0  0
    8.6614   -0.2393    1.7244 O   0  0  0  0  0  0  0  0  0  0  0  0
    6.6320   -0.8457    0.6727 C   0  0  0  0  0  0  0  0  0  0  0  0
    5.2412   -0.8449    0.6734 C   0  0  0  0  0  0  0  0  0  0  0  0
    0.8150    1.0000    3.0525 H   0  0  0  0  0  0  0  0  0  0  0  0
   -1.4883    0.1835    1.7151 H   0  0  0  0  0  0  0  0  0  0  0  0
   -1.4883    1.8165    1.7151 H   0  0  0  0  0  0  0  0  0  0  0  0
   -1.5217    2.1594    5.2317 H   0  0  0  0  0  0  0  0  0  0  0  0
   -3.5150    0.1835    3.1481 H   0  0  0  0  0  0  0  0  0  0  0  0
   -3.5150    1.0000    4.5623 H   0  0  0  0  0  0  0  0  0  0  0  0
   -3.5150    1.8165    3.1481 H   0  0  0  0  0  0  0  0  0  0  0  0
   -1.4883   -1.0576    3.8647 H   0  0  0  0  0  0  0  0  0  0  0  0
   -0.1550   -0.2411    4.3361 H   0  0  0  0  0  0  0  0  0  0  0  0
   -1.4883   -0.2411    5.2789 H   0  0  0  0  0  0  0  0  0  0  0  0
    2.8533    1.8165    1.4714 H   0  0  0  0  0  0  0  0  0  0  0  0
    2.7684    0.2500   -1.0017 H   0  0  0  0  0  0  0  0  0  0  0  0
    3.9710    1.2110   -2.7385 H   0  0  0  0  0  0  0  0  0  0  0  0
    3.9710    2.8440   -2.7385 H   0  0  0  0  0  0  0  0  0  0  0  0
    5.3043    2.0275   -2.2671 H   0  0  0  0  0  0  0  0  0  0  0  0
    2.6933   -0.2411    2.6593 H   0  0  0  0  0  0  0  0  0  0  0  0
    2.6933   -1.0576    1.2451 H   0  0  0  0  0  0  0  0  0  0  0  0
    4.7256    0.7963    3.5122 H   0  0  0  0  0  0  0  0  0  0  0  0
    7.1226    0.7993    3.5194 H   0  0  0  0  0  0  0  0  0  0  0  0
    9.1615   -0.6731    0.9749 H   0  0  0  0  0  0  0  0  0  0  0  0
    7.1374   -1.2771   -0.0746 H   0  0  0  0  0  0  0  0  0  0  0  0
    4.7405   -1.2783   -0.0759 H   0  0  0  0  0  0  0  0  0  0  0  0
  1  2  2  0  0  0  0
  2  3  1  0  0  0  0
  3  4  1  0  0  0  0
  4  5  1  0  0  0  0
  5  6  1  0  0  0  0
  5  7  1  0  0  0  0
  5  8  1  0  0  0  0
  2  9  1  0  0  0  0
  9 10  1  0  0  0  0
 10 11  1  0  0  0  0
 11 12  2  0  0  0  0
 11 13  1  0  0  0  0
  9 14  1  0  0  0  0
 14 15  1  0  0  0  0
 15 16  1  0  0  0  0
 16 17  2  0  0  0  0
 17 18  1  0  0  0  0
 18 19  1  0  0  0  0
 18 20  2  0  0  0  0
 20 21  1  0  0  0  0
 21 15  2  0  0  0  0
  3 22  1  0  0  0  0
  4 23  1  0  0  0  0
  4 24  1  0  0  0  0
  6 25  1  0  0  0  0
  7 26  1  0  0  0  0
  7 27  1  0  0  0  0
  7 28  1  0  0  0  0
  8 29  1  0  0  0  0
  8 30  1  0  0  0  0
  8 31  1  0  0  0  0
  9 32  1  0  0  0  0
 10 33  1  0  0  0  0
 13 34  1  0  0  0  0
 13 35  1  0  0  0  0
 13 36  1  0  0  0  0
 14 37  1  0  0  0  0
 14 38  1  0  0  0  0
 16 39  1  0  0  0  0
 17 40  1  0  0  0  0
 19 41  1  0  0  0  0
 20 42  1  0  0  0  0
 21 43  1  0  0  0  0
M  END
>  <result-rank>
3

>  <similarity>
0.958

>  <query-name>
LIG_A_1101_2_02

>  <query-smiles>
BrC#CCNC(=O)[C@@H](NC(=O)C)Cc1ccc(O)cc1

>  <source>
REALspace_2019-12

>  <similarity-descriptor>
1.000;0.875;0.875;0.875;1.000;1.000;1.000;1.000;1.000;1.000;1.000;1.000;0.214

>  <similarity-descriptor-smiles>
c1ccccc1;CC;CC;CC;N;O=C;C;N;C=O;C;C;O;O.C.C

>  <reaction-name>
s_22

>  <reagent1-name>
6361186

>  <reagent1-smiles>
[R1*]NCC(O)(C)C

>  <reagent2-name>
17513450

>  <reagent2-smiles>
[R1*]C(=O)C(NC(=O)C)Cc1ccc(O)cc1

$$$$
s_2430a____11944322____8643028
          04022015103D 1   1.00000     0.00000     0
            
 41 41  0  0  0  0            999 V2000
    6.3617   -1.6195    1.0000 F   0  0  0  0  0  0  0  0  0  0  0  0
    5.0317   -1.6195    1.0000 C   0  0  0  0  0  0  0  0  0  0  0  0
    4.5883   -2.2465    2.0859 F   0  0  0  0  0  0  0  0  0  0  0  0
    4.5883   -2.2465   -0.0859 F   0  0  0  0  0  0  0  0  0  0  0  0
    4.5250   -0.1865    1.0000 C   0  0  0  0  0  0  0  0  0  0  0  0
    3.0550   -0.1865    1.0000 N   0  0  0  0  0  0  0  0  0  0  0  0
    2.3700    1.0000    1.0000 C   0  0  0  0  0  0  0  0  0  0  0  0
    2.9700    2.0392    1.0000 O   0  0  0  0  0  0  0  0  0  0  0  0
    1.0000    1.0000    1.0000 N   0  0  0  0  0  0  0  0  0  0  0  0
    0.2650    2.2731    1.0000 C   0  0  3  0  0  0  0  0  0  0  0  0
   -0.6089    2.3536    2.2411 C   0  0  0  0  0  0  0  0  0  0  0  0
   -1.5316    1.2743    2.2411 O   0  0  0  0  0  0  0  0  0  0  0  0
   -0.6089    2.3536   -0.2411 C   0  0  0  0  0  0  0  0  0  0  0  0
    0.2650    2.2731   -1.4822 C   0  0  0  0  0  0  0  0  0  0  0  0
    0.7696    3.4427   -2.0410 C   0  0  0  0  0  0  0  0  0  0  0  0
    1.5703    3.3738   -3.1761 C   0  0  0  0  0  0  0  0  0  0  0  0
    1.8569    2.1339   -3.7385 C   0  0  0  0  0  0  0  0  0  0  0  0
    2.6333    2.0625   -4.8404 O   0  0  0  0  0  0  0  0  0  0  0  0
    1.3546    0.9612   -3.1838 C   0  0  0  0  0  0  0  0  0  0  0  0
    0.5548    1.0359   -2.0485 C   0  0  0  0  0  0  0  0  0  0  0  0
    5.0317    0.5301   -0.2411 C   0  0  0  0  0  0  0  0  0  0  0  0
    5.0317    0.5301    2.2411 C   0  0  0  0  0  0  0  0  0  0  0  0
    2.5550   -1.0525    1.0000 H   0  0  0  0  0  0  0  0  0  0  0  0
    0.5000    0.1340    1.0000 H   0  0  0  0  0  0  0  0  0  0  0  0
    0.9148    3.0331    1.0000 H   0  0  0  0  0  0  0  0  0  0  0  0
   -0.0340    2.3006    3.0576 H   0  0  0  0  0  0  0  0  0  0  0  0
   -1.1089    3.2196    2.2411 H   0  0  0  0  0  0  0  0  0  0  0  0
   -2.1065    1.3272    3.0576 H   0  0  0  0  0  0  0  0  0  0  0  0
   -1.2587    1.5935   -0.2411 H   0  0  0  0  0  0  0  0  0  0  0  0
   -1.1089    3.2196   -0.2411 H   0  0  0  0  0  0  0  0  0  0  0  0
    0.5577    4.3287   -1.6285 H   0  0  0  0  0  0  0  0  0  0  0  0
    1.9372    4.2093   -3.5851 H   0  0  0  0  0  0  0  0  0  0  0  0
    2.8421    1.1737   -5.2483 H   0  0  0  0  0  0  0  0  0  0  0  0
    1.5660    0.0752   -3.5965 H   0  0  0  0  0  0  0  0  0  0  0  0
    0.1881    0.2004   -1.6392 H   0  0  0  0  0  0  0  0  0  0  0  0
    6.0317    0.5301   -0.2411 H   0  0  0  0  0  0  0  0  0  0  0  0
    4.6983    0.0587   -1.0576 H   0  0  0  0  0  0  0  0  0  0  0  0
    4.6983    1.4729   -0.2411 H   0  0  0  0  0  0  0  0  0  0  0  0
    6.0317    0.5301    2.2411 H   0  0  0  0  0  0  0  0  0  0  0  0
    4.6983    1.4729    2.2411 H   0  0  0  0  0  0  0  0  0  0  0  0
    4.6983    0.0587    3.0576 H   0  0  0  0  0  0  0  0  0  0  0  0
  1  2  1  0  0  0  0
  2  3  1  0  0  0  0
  2  4  1  0  0  0  0
  2  5  1  0  0  0  0
  5  6  1  0  0  0  0
  6  7  1  0  0  0  0
  7  8  2  0  0  0  0
  7  9  1  0  0  0  0
  9 10  1  0  0  0  0
 10 11  1  0  0  0  0
 11 12  1  0  0  0  0
 10 13  1  0  0  0  0
 13 14  1  0  0  0  0
 14 15  1  0  0  0  0
 15 16  2  0  0  0  0
 16 17  1  0  0  0  0
 17 18  1  0  0  0  0
 17 19  2  0  0  0  0
 19 20  1  0  0  0  0
 20 14  2  0  0  0  0
  5 21  1  0  0  0  0
  5 22  1  0  0  0  0
  6 23  1  0  0  0  0
  9 24  1  0  0  0  0
 10 25  1  0  0  0  0
 11 26  1  0  0  0  0
 11 27  1  0  0  0  0
 12 28  1  0  0  0  0
 13 29  1  0  0  0  0
 13 30  1  0  0  0  0
 15 31  1  0  0  0  0
 16 32  1  0  0  0  0
 18 33  1  0  0  0  0
 19 34  1  0  0  0  0
 20 35  1  0  0  0  0
 21 36  1  0  0  0  0
 21 37  1  0  0  0  0
 21 38  1  0  0  0  0
 22 39  1  0  0  0  0
 22 40  1  0  0  0  0
 22 41  1  0  0  0  0
M  END
>  <result-rank>
4

>  <similarity>
0.957

>  <query-name>
LIG_A_1101_2_02

>  <query-smiles>
BrC#CCNC(=O)[C@@H](NC(=O)C)Cc1ccc(O)cc1

>  <source>
REALspace_2019-12

>  <similarity-descriptor>
1.000;0.990;0.988;0.988;1.000;0.995;0.999;0.999;0.730;0.730;1.000;1.000;0.077

>  <similarity-descriptor-smiles>
c1ccccc1;FC(F)F;CC;CC;N;C=O;NC;NC;CO;CO;C;O;C

>  <reaction-name>
s_2430a

>  <reagent1-name>
11944322

>  <reagent1-smiles>
[R1*]C(=O)NC(C(F)(F)F)(C)C

>  <reagent2-name>
8643028

>  <reagent2-smiles>
[R1*]NC(CO)Cc1ccc(O)cc1

$$$$
s_2430a____13259370____14594114
          04022015103D 1   1.00000     0.00000     0
            
 49 49  0  0  0  0            999 V2000
   -1.2183    4.2465    2.0859 F   0  0  0  0  0  0  0  0  0  0  0  0
   -1.6617    3.6195    1.0000 C   0  0  0  0  0  0  0  0  0  0  0  0
   -1.2183    4.2465   -0.0859 F   0  0  0  0  0  0  0  0  0  0  0  0
   -2.9917    3.6195    1.0000 F   0  0  0  0  0  0  0  0  0  0  0  0
   -1.1550    2.1865    1.0000 C   0  0  3  0  0  0  0  0  0  0  0  0
    0.3150    2.1865    1.0000 N   0  0  0  0  0  0  0  0  0  0  0  0
    1.0000    1.0000    1.0000 C   0  0  0  0  0  0  0  0  0  0  0  0
    0.4000   -0.0392    1.0000 O   0  0  0  0  0  0  0  0  0  0  0  0
    2.3700    1.0000    1.0000 N   0  0  0  0  0  0  0  0  0  0  0  0
    3.1050   -0.2731    1.0000 C   0  0  3  0  0  0  0  0  0  0  0  0
    3.9789   -0.3536   -0.2411 C   0  0  0  0  0  0  0  0  0  0  0  0
    3.9839    0.5498   -1.0310 O   0  0  0  0  0  0  0  0  0  0  0  0
    4.7607   -1.4575   -0.4579 N   0  0  0  0  0  0  0  0  0  0  0  0
    5.6059   -1.5353   -1.6581 C   0  0  0  0  0  0  0  0  0  0  0  0
    4.7546   -2.5641    0.5098 C   0  0  0  0  0  0  0  0  0  0  0  0
    3.9789   -0.3536    2.2411 C   0  0  0  0  0  0  0  0  0  0  0  0
    3.1048   -0.2730    3.4824 C   0  0  0  0  0  0  0  0  0  0  0  0
    2.8195    0.9667    4.0450 C   0  0  0  0  0  0  0  0  0  0  0  0
    2.0201    1.0359    5.1813 C   0  0  0  0  0  0  0  0  0  0  0  0
    1.5113   -0.1292    5.7457 C   0  0  0  0  0  0  0  0  0  0  0  0
    1.8025   -1.3620    5.1749 C   0  0  0  0  0  0  0  0  0  0  0  0
    2.6012   -1.4445    4.0390 C   0  0  0  0  0  0  0  0  0  0  0  0
   -1.6617    1.4699   -0.2411 C   0  0  0  0  0  0  0  0  0  0  0  0
   -3.1817    1.4699   -0.2411 C   0  0  0  0  0  0  0  0  0  0  0  0
   -1.6617    1.4699    2.2411 C   0  0  0  0  0  0  0  0  0  0  0  0
    0.8150    3.0525    1.0000 H   0  0  0  0  0  0  0  0  0  0  0  0
    2.8700    1.8660    1.0000 H   0  0  0  0  0  0  0  0  0  0  0  0
    2.4552   -1.0331    1.0000 H   0  0  0  0  0  0  0  0  0  0  0  0
    6.1059   -2.4014   -1.6581 H   0  0  0  0  0  0  0  0  0  0  0  0
    5.0309   -1.4824   -2.4746 H   0  0  0  0  0  0  0  0  0  0  0  0
    6.2557   -0.7753   -1.6581 H   0  0  0  0  0  0  0  0  0  0  0  0
    5.3767   -3.2824    0.1986 H   0  0  0  0  0  0  0  0  0  0  0  0
    5.0537   -2.2277    1.4027 H   0  0  0  0  0  0  0  0  0  0  0  0
    3.8290   -2.9348    0.5862 H   0  0  0  0  0  0  0  0  0  0  0  0
    4.4789   -1.2196    2.2411 H   0  0  0  0  0  0  0  0  0  0  0  0
    4.6287    0.4065    2.2411 H   0  0  0  0  0  0  0  0  0  0  0  0
    3.1864    1.8021    3.6357 H   0  0  0  0  0  0  0  0  0  0  0  0
    1.8111    1.9232    5.5924 H   0  0  0  0  0  0  0  0  0  0  0  0
    0.9361   -0.0795    6.5622 H   0  0  0  0  0  0  0  0  0  0  0  0
    1.4347   -2.1971    5.5840 H   0  0  0  0  0  0  0  0  0  0  0  0
    2.8102   -2.3322    3.6288 H   0  0  0  0  0  0  0  0  0  0  0  0
   -1.3283    0.5271   -0.2411 H   0  0  0  0  0  0  0  0  0  0  0  0
   -1.3283    1.9413   -1.0576 H   0  0  0  0  0  0  0  0  0  0  0  0
   -3.5150    0.9985   -1.0576 H   0  0  0  0  0  0  0  0  0  0  0  0
   -3.5150    0.9985    0.5754 H   0  0  0  0  0  0  0  0  0  0  0  0
   -3.5150    2.4127   -0.2411 H   0  0  0  0  0  0  0  0  0  0  0  0
   -2.6617    1.4699    2.2411 H   0  0  0  0  0  0  0  0  0  0  0  0
   -1.3283    0.5271    2.2411 H   0  0  0  0  0  0  0  0  0  0  0  0
   -1.3283    1.9413    3.0576 H   0  0  0  0  0  0  0  0  0  0  0  0
  1  2  1  0  0  0  0
  2  3  1  0  0  0  0
  2  4  1  0  0  0  0
  2  5  1  0  0  0  0
  5  6  1  0  0  0  0
  6  7  1  0  0  0  0
  7  8  2  0  0  0  0
  7  9  1  0  0  0  0
  9 10  1  0  0  0  0
 10 11  1  0  0  0  0
 11 12  2  0  0  0  0
 11 13  1  0  0  0  0
 13 14  1  0  0  0  0
 13 15  1  0  0  0  0
 10 16  1  0  0  0  0
 16 17  1  0  0  0  0
 17 18  1  0  0  0  0
 18 19  2  0  0  0  0
 19 20  1  0  0  0  0
 20 21  2  0  0  0  0
 21 22  1  0  0  0  0
 22 17  2  0  0  0  0
  5 23  1  0  0  0  0
 23 24  1  0  0  0  0
  5 25  1  0  0  0  0
  6 26  1  0  0  0  0
  9 27  1  0  0  0  0
 10 28  1  0  0  0  0
 14 29  1  0  0  0  0
 14 30  1  0  0  0  0
 14 31  1  0  0  0  0
 15 32  1  0  0  0  0
 15 33  1  0  0  0  0
 15 34  1  0  0  0  0
 16 35  1  0  0  0  0
 16 36  1  0  0  0  0
 18 37  1  0  0  0  0
 19 38  1  0  0  0  0
 20 39  1  0  0  0  0
 21 40  1  0  0  0  0
 22 41  1  0  0  0  0
 23 42  1  0  0  0  0
 23 43  1  0  0  0  0
 24 44  1  0  0  0  0
 24 45  1  0  0  0  0
 24 46  1  0  0  0  0
 25 47  1  0  0  0  0
 25 48  1  0  0  0  0
 25 49  1  0  0  0  0
M  END
>  <result-rank>
5

>  <similarity>
0.956

>  <query-name>
LIG_A_1101_2_02

>  <query-smiles>
BrC#CCNC(=O)[C@@H](NC(=O)C)Cc1ccc(O)cc1

>  <source>
REALspace_2019-12

>  <similarity-descriptor>
0.960;0.990;0.988;0.988;1.000;0.995;1.000;1.000;1.000;0.977;1.000;0.0;0.200

>  <similarity-descriptor-smiles>
c1ccccc1;FC(F)F;CC;CC;N;C=O;NC;NC;C=O;NC;C;;C.C.C

>  <reaction-name>
s_2430a

>  <reagent1-name>
13259370

>  <reagent1-smiles>
[R1*]C(=O)NC(C(F)(F)F)(CC)C

>  <reagent2-name>
14594114

>  <reagent2-smiles>
[R1*]NC(C(=O)N(C)C)Cc1ccccc1

$$$$
s_240690a____9049120____7408866
          04022015103D 1   1.00000     0.00000     0
            
 41 41  0  0  0  0            999 V2000
    1.6027   -2.9469   -4.5862 Br  0  0  0  0  0  0  0  0  0  0  0  0
    2.0508   -1.5747   -3.2604 C   0  0  0  0  0  0  0  0  0  0  0  0
    2.8137   -1.9145   -2.1479 C   0  0  0  0  0  0  0  0  0  0  0  0
    3.1286   -0.9363   -1.2104 C   0  0  0  0  0  0  0  0  0  0  0  0
    2.6785    0.3669   -1.3947 C   0  0  0  0  0  0  0  0  0  0  0  0
    1.9159    0.6999   -2.5098 C   0  0  0  0  0  0  0  0  0  0  0  0
    1.5971   -0.2732   -3.4514 C   0  0  0  0  0  0  0  0  0  0  0  0
    3.0267    1.4309   -0.3667 C   0  0  3  0  0  0  0  0  0  0  0  0
    4.4855    1.6046   -0.3161 N   0  0  0  0  0  0  0  0  0  0  0  0
    5.0404    2.8242   -0.6018 C   0  0  0  0  0  0  0  0  0  0  0  0
    4.3356    3.7506   -0.8934 O   0  0  0  0  0  0  0  0  0  0  0  0
    6.5489    3.0038   -0.5495 C   0  0  0  0  0  0  0  0  0  0  0  0
    2.5200    1.0000    1.0000 C   0  0  0  0  0  0  0  0  0  0  0  0
    1.0000    1.0000    1.0000 C   0  0  0  0  0  0  0  0  0  0  0  0
    0.4000    1.0000   -0.0392 O   0  0  0  0  0  0  0  0  0  0  0  0
    0.3150    1.0000    2.1865 N   0  0  0  0  0  0  0  0  0  0  0  0
   -1.1550    1.0000    2.1865 C   0  0  0  0  0  0  0  0  0  0  0  0
   -1.6617    1.0000    3.6195 C   0  0  0  0  0  0  0  0  0  0  0  0
   -1.2183   -0.0859    4.2465 F   0  0  0  0  0  0  0  0  0  0  0  0
   -1.2183    2.0859    4.2465 F   0  0  0  0  0  0  0  0  0  0  0  0
   -3.1817    1.0000    3.6195 C   0  0  0  0  0  0  0  0  0  0  0  0
   -3.6717    1.0000    5.0055 N   0  3  0  0  0  0  0  0  0  0  0  0
   -4.6717    1.0000    5.0055 H   0  0  0  0  0  0  0  0  0  0  0  0
   -3.3383    0.1835    5.4769 H   0  0  0  0  0  0  0  0  0  0  0  0
   -3.3383    1.8165    5.4769 H   0  0  0  0  0  0  0  0  0  0  0  0
    3.1330   -2.8539   -2.0232 H   0  0  0  0  0  0  0  0  0  0  0  0
    3.6764   -1.1691   -0.4069 H   0  0  0  0  0  0  0  0  0  0  0  0
    1.5968    1.6394   -2.6344 H   0  0  0  0  0  0  0  0  0  0  0  0
    1.0491   -0.0404   -4.2549 H   0  0  0  0  0  0  0  0  0  0  0  0
    2.5967    2.2963   -0.6240 H   0  0  0  0  0  0  0  0  0  0  0  0
    5.0728    0.8326   -0.0731 H   0  0  0  0  0  0  0  0  0  0  0  0
    6.9789    2.1384   -0.2922 H   0  0  0  0  0  0  0  0  0  0  0  0
    6.8822    3.2873   -1.4486 H   0  0  0  0  0  0  0  0  0  0  0  0
    6.7779    3.7039    0.1269 H   0  0  0  0  0  0  0  0  0  0  0  0
    2.8533    0.0795    1.2041 H   0  0  0  0  0  0  0  0  0  0  0  0
    2.8533    1.6370    1.6951 H   0  0  0  0  0  0  0  0  0  0  0  0
    0.8150    1.0000    3.0525 H   0  0  0  0  0  0  0  0  0  0  0  0
   -1.4883    0.1835    1.7151 H   0  0  0  0  0  0  0  0  0  0  0  0
   -1.4883    1.8165    1.7151 H   0  0  0  0  0  0  0  0  0  0  0  0
   -3.5150    1.8165    3.1481 H   0  0  0  0  0  0  0  0  0  0  0  0
   -3.5150    0.1835    3.1481 H   0  0  0  0  0  0  0  0  0  0  0  0
  1  2  1  0  0  0  0
  2  3  1  0  0  0  0
  3  4  2  0  0  0  0
  4  5  1  0  0  0  0
  5  6  2  0  0  0  0
  6  7  1  0  0  0  0
  7  2  2  0  0  0  0
  5  8  1  0  0  0  0
  8  9  1  0  0  0  0
  9 10  1  0  0  0  0
 10 11  2  0  0  0  0
 10 12  1  0  0  0  0
  8 13  1  0  0  0  0
 13 14  1  0  0  0  0
 14 15  2  0  0  0  0
 14 16  1  0  0  0  0
 16 17  1  0  0  0  0
 17 18  1  0  0  0  0
 18 19  1  0  0  0  0
 18 20  1  0  0  0  0
 18 21  1  0  0  0  0
 21 22  1  0  0  0  0
 22 23  1  0  0  0  0
 22 24  1  0  0  0  0
 22 25  1  0  0  0  0
  3 26  1  0  0  0  0
  4 27  1  0  0  0  0
  6 28  1  0  0  0  0
  7 29  1  0  0  0  0
  8 30  1  0  0  0  0
  9 31  1  0  0  0  0
 12 32  1  0  0  0  0
 12 33  1  0  0  0  0
 12 34  1  0  0  0  0
 13 35  1  0  0  0  0
 13 36  1  0  0  0  0
 16 37  1  0  0  0  0
 17 38  1  0  0  0  0
 17 39  1  0  0  0  0
 21 40  1  0  0  0  0
 21 41  1  0  0  0  0
M  CHG  1  22   1
M  END
>  <result-rank>
6

>  <similarity>
0.955

>  <query-name>
LIG_A_1101_2_02

>  <query-smiles>
BrC#CCNC(=O)[C@@H](NC(=O)C)Cc1ccc(O)cc1

>  <source>
REALspace_2019-12

>  <similarity-descriptor>
0.962;0.959;0.939;0.939;1.000;1.000;1.000;1.000;1.000;1.000;1.000;0.0;0.167

>  <similarity-descriptor-smiles>
Brc1ccccc1;C(F)F;C;C;N;C=O;CC;N;C=O;C;CC;;C.[NH3+]

>  <reaction-name>
s_240690a

>  <reagent1-name>
9049120

>  <reagent1-smiles>
[R1*]NCC(F)(F)CN

>  <reagent2-name>
7408866

>  <reagent2-smiles>
[R1*]C(=O)CC(NC(=O)C)c1ccc(Br)cc1

$$$$
s_22____10545716____16887748
          04022015103D 1   1.00000     0.00000     0
            
 49 49  0  0  0  0            999 V2000
    2.7748   -3.1228    0.4261 F   0  0  0  0  0  0  0  0  0  0  0  0
    2.3314   -3.1228   -0.8278 C   0  0  0  0  0  0  0  0  0  0  0  0
    1.0014   -3.1228   -0.8278 F   0  0  0  0  0  0  0  0  0  0  0  0
    2.8381   -1.8817   -1.5444 C   0  0  0  0  0  0  0  0  0  0  0  0
    2.3481   -0.6814   -0.8514 N   0  0  0  0  0  0  0  0  0  0  0  0
    2.9767   -0.2411    0.2835 C   0  0  0  0  0  0  0  0  0  0  0  0
    3.9272   -0.8352    0.7118 O   0  0  0  0  0  0  0  0  0  0  0  0
    2.4700    1.0000    1.0000 C   0  0  3  0  0  0  0  0  0  0  0  0
    1.0000    1.0000    1.0000 N   0  0  0  0  0  0  0  0  0  0  0  0
    0.3150    1.0000    2.1865 C   0  0  0  0  0  0  0  0  0  0  0  0
    0.9150    1.0000    3.2257 O   0  0  0  0  0  0  0  0  0  0  0  0
   -1.2050    1.0000    2.1865 C   0  0  0  0  0  0  0  0  0  0  0  0
   -1.6783    1.0000    3.5252 O   0  0  0  0  0  0  0  0  0  0  0  0
   -3.0983    1.0000    3.5252 C   0  0  0  0  0  0  0  0  0  0  0  0
   -3.6050    1.0000    4.9583 C   0  0  0  0  0  0  0  0  0  0  0  0
   -3.6050    2.2411    2.8087 C   0  0  0  0  0  0  0  0  0  0  0  0
    2.9767    2.2411    0.2835 C   0  0  0  0  0  0  0  0  0  0  0  0
    2.4700    3.4822    1.0000 C   0  0  0  0  0  0  0  0  0  0  0  0
    3.2306    4.0410    2.0218 C   0  0  0  0  0  0  0  0  0  0  0  0
    2.7714    5.1770    2.6798 C   0  0  0  0  0  0  0  0  0  0  0  0
    1.5555    5.7409    2.3064 C   0  0  0  0  0  0  0  0  0  0  0  0
    1.1058    6.8432    2.9425 O   0  0  0  0  0  0  0  0  0  0  0  0
    0.7907    5.1858    1.2854 C   0  0  0  0  0  0  0  0  0  0  0  0
    1.2550    4.0500    0.6306 C   0  0  0  0  0  0  0  0  0  0  0  0
    2.8381   -4.3638   -1.5444 C   0  0  0  0  0  0  0  0  0  0  0  0
    3.8381   -1.8817   -1.5444 H   0  0  0  0  0  0  0  0  0  0  0  0
    2.5048   -1.8817   -2.4872 H   0  0  0  0  0  0  0  0  0  0  0  0
    1.5560   -0.1864   -1.2083 H   0  0  0  0  0  0  0  0  0  0  0  0
    2.8033    1.0000    1.9428 H   0  0  0  0  0  0  0  0  0  0  0  0
    0.5000    1.0000    0.1340 H   0  0  0  0  0  0  0  0  0  0  0  0
   -1.5383    1.8165    1.7151 H   0  0  0  0  0  0  0  0  0  0  0  0
   -1.5383    0.1835    1.7151 H   0  0  0  0  0  0  0  0  0  0  0  0
   -3.4317    0.1835    3.0538 H   0  0  0  0  0  0  0  0  0  0  0  0
   -4.6050    1.0000    4.9583 H   0  0  0  0  0  0  0  0  0  0  0  0
   -3.2717    0.1835    5.4297 H   0  0  0  0  0  0  0  0  0  0  0  0
   -3.2717    1.8165    5.4297 H   0  0  0  0  0  0  0  0  0  0  0  0
   -4.6050    2.2411    2.8087 H   0  0  0  0  0  0  0  0  0  0  0  0
   -3.2717    3.0576    3.2801 H   0  0  0  0  0  0  0  0  0  0  0  0
   -3.2717    2.2411    1.8659 H   0  0  0  0  0  0  0  0  0  0  0  0
    3.9767    2.2411    0.2835 H   0  0  0  0  0  0  0  0  0  0  0  0
    2.6433    2.2411   -0.6593 H   0  0  0  0  0  0  0  0  0  0  0  0
    4.1034    3.6279    2.2820 H   0  0  0  0  0  0  0  0  0  0  0  0
    3.3111    5.5856    3.4158 H   0  0  0  0  0  0  0  0  0  0  0  0
    0.2325    7.2521    2.6777 H   0  0  0  0  0  0  0  0  0  0  0  0
   -0.0823    5.5984    1.0255 H   0  0  0  0  0  0  0  0  0  0  0  0
    0.7154    3.6416   -0.1057 H   0  0  0  0  0  0  0  0  0  0  0  0
    2.5048   -4.3638   -2.4872 H   0  0  0  0  0  0  0  0  0  0  0  0
    3.8381   -4.3638   -1.5444 H   0  0  0  0  0  0  0  0  0  0  0  0
    2.5048   -5.1803   -1.0730 H   0  0  0  0  0  0  0  0  0  0  0  0
  1  2  1  0  0  0  0
  2  3  1  0  0  0  0
  2  4  1  0  0  0  0
  4  5  1  0  0  0  0
  5  6  1  0  0  0  0
  6  7  2  0  0  0  0
  6  8  1  0  0  0  0
  8  9  1  0  0  0  0
  9 10  1  0  0  0  0
 10 11  2  0  0  0  0
 10 12  1  0  0  0  0
 12 13  1  0  0  0  0
 13 14  1  0  0  0  0
 14 15  1  0  0  0  0
 14 16  1  0  0  0  0
  8 17  1  0  0  0  0
 17 18  1  0  0  0  0
 18 19  1  0  0  0  0
 19 20  2  0  0  0  0
 20 21  1  0  0  0  0
 21 22  1  0  0  0  0
 21 23  2  0  0  0  0
 23 24  1  0  0  0  0
 24 18  2  0  0  0  0
  2 25  1  0  0  0  0
  4 26  1  0  0  0  0
  4 27  1  0  0  0  0
  5 28  1  0  0  0  0
  8 29  1  0  0  0  0
  9 30  1  0  0  0  0
 12 31  1  0  0  0  0
 12 32  1  0  0  0  0
 14 33  1  0  0  0  0
 15 34  1  0  0  0  0
 15 35  1  0  0  0  0
 15 36  1  0  0  0  0
 16 37  1  0  0  0  0
 16 38  1  0  0  0  0
 16 39  1  0  0  0  0
 17 40  1  0  0  0  0
 17 41  1  0  0  0  0
 19 42  1  0  0  0  0
 20 43  1  0  0  0  0
 22 44  1  0  0  0  0
 23 45  1  0  0  0  0
 24 46  1  0  0  0  0
 25 47  1  0  0  0  0
 25 48  1  0  0  0  0
 25 49  1  0  0  0  0
M  END
>  <result-rank>
7

>  <similarity>
0.952

>  <query-name>
LIG_A_1101_2_02

>  <query-smiles>
BrC#CCNC(=O)[C@@H](NC(=O)C)Cc1ccc(O)cc1

>  <source>
REALspace_2019-12

>  <similarity-descriptor>
1.000;0.959;0.939;0.939;1.000;1.000;1.000;1.000;1.000;0.956;1.000;1.000;0.313

>  <similarity-descriptor-smiles>
c1ccccc1;FCF;C;C;N;C=O;C;N;C=O;C;C;O;O.C.C.C.C

>  <reaction-name>
s_22

>  <reagent1-name>
10545716

>  <reagent1-smiles>
[R1*]NCC(F)(F)C

>  <reagent2-name>
16887748

>  <reagent2-smiles>
[R1*]C(=O)C(NC(=O)COC(C)C)Cc1ccc(O)cc1

$$$$
s_22____17070220____17513450
          04022015103D 1   1.00000     0.00000     0
            
 41 43  0  0  0  0            999 V2000
    1.3936    5.4379    1.9597 F   0  0  0  0  0  0  0  0  0  0  0  0
    2.1079    5.1859    3.0529 C   0  0  0  0  0  0  0  0  0  0  0  0
    3.2188    5.8776    3.2718 F   0  0  0  0  0  0  0  0  0  0  0  0
    1.3524    4.7136    4.2519 C   0  0  0  0  0  0  0  0  0  0  0  0
    2.1672    3.7440    3.4526 C   0  0  3  0  0  0  0  0  0  0  0  0
    1.3190    2.8957    2.6044 N   0  0  0  0  0  0  0  0  0  0  0  0
    1.8776    1.8776    1.8776 C   0  0  0  0  0  0  0  0  0  0  0  0
    3.0596    1.6786    1.9338 O   0  0  0  0  0  0  0  0  0  0  0  0
    1.0000    1.0000    1.0000 C   0  0  3  0  0  0  0  0  0  0  0  0
   -0.2629    0.7171    1.6971 N   0  0  0  0  0  0  0  0  0  0  0  0
   -0.6150   -0.5766    1.9787 C   0  0  0  0  0  0  0  0  0  0  0  0
    0.1075   -1.4788    1.6563 O   0  0  0  0  0  0  0  0  0  0  0  0
   -1.9209   -0.8691    2.6995 C   0  0  0  0  0  0  0  0  0  0  0  0
    0.7075    1.7208   -0.3059 C   0  0  0  0  0  0  0  0  0  0  0  0
   -0.1701    0.8432   -1.1835 C   0  0  0  0  0  0  0  0  0  0  0  0
   -1.5540    0.9425   -1.0842 C   0  0  0  0  0  0  0  0  0  0  0  0
   -2.3610    0.1420   -1.8857 C   0  0  0  0  0  0  0  0  0  0  0  0
   -1.7726   -0.7486   -2.7781 C   0  0  0  0  0  0  0  0  0  0  0  0
   -2.5520   -1.5276   -3.5577 O   0  0  0  0  0  0  0  0  0  0  0  0
   -0.3891   -0.8520   -2.8811 C   0  0  0  0  0  0  0  0  0  0  0  0
    0.4131   -0.0489   -2.0774 C   0  0  0  0  0  0  0  0  0  0  0  0
    0.0208    4.8607    4.9299 C   0  0  0  0  0  0  0  0  0  0  0  0
    1.2904    5.0486    5.7138 C   0  0  0  0  0  0  0  0  0  0  0  0
    3.0116    3.3715    3.8378 H   0  0  0  0  0  0  0  0  0  0  0  0
    0.3340    3.0616    2.5576 H   0  0  0  0  0  0  0  0  0  0  0  0
    1.4742    0.1409    0.8075 H   0  0  0  0  0  0  0  0  0  0  0  0
   -0.8650    1.4689    1.9658 H   0  0  0  0  0  0  0  0  0  0  0  0
   -2.3951   -0.0100    2.8919 H   0  0  0  0  0  0  0  0  0  0  0  0
   -2.4982   -1.4465    2.1221 H   0  0  0  0  0  0  0  0  0  0  0  0
   -1.7284   -1.3433    3.5586 H   0  0  0  0  0  0  0  0  0  0  0  0
    0.2333    2.5799   -0.1134 H   0  0  0  0  0  0  0  0  0  0  0  0
    1.5666    1.9133   -0.7801 H   0  0  0  0  0  0  0  0  0  0  0  0
   -1.9667    1.5862   -0.4397 H   0  0  0  0  0  0  0  0  0  0  0  0
   -3.3569    0.2061   -1.8211 H   0  0  0  0  0  0  0  0  0  0  0  0
   -2.1337   -2.1692   -4.2005 H   0  0  0  0  0  0  0  0  0  0  0  0
    0.0237   -1.4961   -3.5251 H   0  0  0  0  0  0  0  0  0  0  0  0
    1.4089   -0.1127   -2.1423 H   0  0  0  0  0  0  0  0  0  0  0  0
   -0.5509    4.0560    5.0892 H   0  0  0  0  0  0  0  0  0  0  0  0
   -0.5610    5.6476    4.7241 H   0  0  0  0  0  0  0  0  0  0  0  0
    1.5530    5.9604    6.0295 H   0  0  0  0  0  0  0  0  0  0  0  0
    1.5630    4.3687    6.3946 H   0  0  0  0  0  0  0  0  0  0  0  0
  1  2  1  0  0  0  0
  2  3  1  0  0  0  0
  2  4  1  0  0  0  0
  4  5  1  0  0  0  0
  5  2  1  0  0  0  0
  5  6  1  0  0  0  0
  6  7  1  0  0  0  0
  7  8  2  0  0  0  0
  7  9  1  0  0  0  0
  9 10  1  0  0  0  0
 10 11  1  0  0  0  0
 11 12  2  0  0  0  0
 11 13  1  0  0  0  0
  9 14  1  0  0  0  0
 14 15  1  0  0  0  0
 15 16  1  0  0  0  0
 16 17  2  0  0  0  0
 17 18  1  0  0  0  0
 18 19  1  0  0  0  0
 18 20  2  0  0  0  0
 20 21  1  0  0  0  0
 21 15  2  0  0  0  0
  4 22  1  0  0  0  0
 22 23  1  0  0  0  0
 23  4  1  0  0  0  0
  5 24  1  0  0  0  0
  6 25  1  0  0  0  0
  9 26  1  0  0  0  0
 10 27  1  0  0  0  0
 13 28  1  0  0  0  0
 13 29  1  0  0  0  0
 13 30  1  0  0  0  0
 14 31  1  0  0  0  0
 14 32  1  0  0  0  0
 16 33  1  0  0  0  0
 17 34  1  0  0  0  0
 19 35  1  0  0  0  0
 20 36  1  0  0  0  0
 21 37  1  0  0  0  0
 22 38  1  0  0  0  0
 22 39  1  0  0  0  0
 23 40  1  0  0  0  0
 23 41  1  0  0  0  0
M  END
>  <result-rank>
8

>  <similarity>
0.952

>  <query-name>
LIG_A_1101_2_02

>  <query-smiles>
BrC#CCNC(=O)[C@@H](NC(=O)C)Cc1ccc(O)cc1

>  <source>
REALspace_2019-12

>  <similarity-descriptor>
1.000;0.855;0.855;0.855;1.000;1.000;1.000;1.000;1.000;1.000;1.000;1.000;0.091

>  <similarity-descriptor-smiles>
c1ccccc1;FC1(CC1)F;FC1(CC1)F;FC1(CC1)F;N;C=O;C;N;C=O;C;C;O;C1CC1

>  <reaction-name>
s_22

>  <reagent1-name>
17070220

>  <reagent1-smiles>
[R1*]NC1C(F)(F)C12CC2

>  <reagent2-name>
17513450

>  <reagent2-smiles>
[R1*]C(=O)C(NC(=O)C)Cc1ccc(O)cc1

$$$$
s_22____6287650____5637262
          04022015103D 1   1.00000     0.00000     0
            
 38 38  0  0  0  0            999 V2000
    2.0549    1.5493   -3.0060 F   0  0  0  0  0  0  0  0  0  0  0  0
    2.5229    0.3718   -2.6020 C   0  0  0  0  0  0  0  0  0  0  0  0
    3.0192    0.2379   -1.3093 C   0  0  0  0  0  0  0  0  0  0  0  0
    3.5133   -0.9839   -0.8650 C   0  0  0  0  0  0  0  0  0  0  0  0
    3.5058   -2.0746   -1.7292 C   0  0  0  0  0  0  0  0  0  0  0  0
    3.0084   -1.9349   -3.0205 C   0  0  0  0  0  0  0  0  0  0  0  0
    3.0022   -2.9777   -3.8448 F   0  0  0  0  0  0  0  0  0  0  0  0
    2.5139   -0.7153   -3.4694 C   0  0  0  0  0  0  0  0  0  0  0  0
    3.0267    1.4309   -0.3667 C   0  0  3  0  0  0  0  0  0  0  0  0
    4.3972    1.9473   -0.2408 N   0  0  0  0  0  0  0  0  0  0  0  0
    4.6793    3.2374   -0.6054 C   0  0  0  0  0  0  0  0  0  0  0  0
    3.8076    3.9459   -1.0276 O   0  0  0  0  0  0  0  0  0  0  0  0
    6.0965    3.7714   -0.4752 C   0  0  0  0  0  0  0  0  0  0  0  0
    2.5200    1.0000    1.0000 C   0  0  0  0  0  0  0  0  0  0  0  0
    1.0000    1.0000    1.0000 C   0  0  0  0  0  0  0  0  0  0  0  0
    0.4000    1.0000   -0.0392 O   0  0  0  0  0  0  0  0  0  0  0  0
    0.3150    1.0000    2.1865 N   0  0  0  0  0  0  0  0  0  0  0  0
   -1.1550    1.0000    2.1865 C   0  0  0  0  0  0  0  0  0  0  0  0
   -1.6617   -0.4113    1.9376 C   0  0  0  0  0  0  0  0  0  0  0  0
   -3.1817   -0.4113    1.9376 C   0  0  0  0  0  0  0  0  0  0  0  0
   -3.6250   -1.6462    1.7199 F   0  0  0  0  0  0  0  0  0  0  0  0
   -3.6250    0.0176    3.1159 F   0  0  0  0  0  0  0  0  0  0  0  0
   -3.6250    0.3947    0.9770 F   0  0  0  0  0  0  0  0  0  0  0  0
    3.8698   -1.0776    0.0646 H   0  0  0  0  0  0  0  0  0  0  0  0
    3.8579   -2.9586   -1.4219 H   0  0  0  0  0  0  0  0  0  0  0  0
    2.1581   -0.6216   -4.3993 H   0  0  0  0  0  0  0  0  0  0  0  0
    2.4326    2.1478   -0.7317 H   0  0  0  0  0  0  0  0  0  0  0  0
    5.1236    1.3569    0.1110 H   0  0  0  0  0  0  0  0  0  0  0  0
    6.6906    3.0545   -0.1102 H   0  0  0  0  0  0  0  0  0  0  0  0
    6.4298    4.0549   -1.3743 H   0  0  0  0  0  0  0  0  0  0  0  0
    6.1014    4.5560    0.1448 H   0  0  0  0  0  0  0  0  0  0  0  0
    2.8533    0.0795    1.2041 H   0  0  0  0  0  0  0  0  0  0  0  0
    2.8533    1.6370    1.6951 H   0  0  0  0  0  0  0  0  0  0  0  0
    0.8150    1.0000    3.0525 H   0  0  0  0  0  0  0  0  0  0  0  0
   -1.4883    1.6060    1.4642 H   0  0  0  0  0  0  0  0  0  0  0  0
   -1.4883    1.3225    3.0724 H   0  0  0  0  0  0  0  0  0  0  0  0
   -1.3283   -0.7338    1.0517 H   0  0  0  0  0  0  0  0  0  0  0  0
   -1.3283   -1.0173    2.6598 H   0  0  0  0  0  0  0  0  0  0  0  0
  1  2  1  0  0  0  0
  2  3  1  0  0  0  0
  3  4  2  0  0  0  0
  4  5  1  0  0  0  0
  5  6  2  0  0  0  0
  6  7  1  0  0  0  0
  6  8  1  0  0  0  0
  8  2  2  0  0  0  0
  3  9  1  0  0  0  0
  9 10  1  0  0  0  0
 10 11  1  0  0  0  0
 11 12  2  0  0  0  0
 11 13  1  0  0  0  0
  9 14  1  0  0  0  0
 14 15  1  0  0  0  0
 15 16  2  0  0  0  0
 15 17  1  0  0  0  0
 17 18  1  0  0  0  0
 18 19  1  0  0  0  0
 19 20  1  0  0  0  0
 20 21  1  0  0  0  0
 20 22  1  0  0  0  0
 20 23  1  0  0  0  0
  4 24  1  0  0  0  0
  5 25  1  0  0  0  0
  8 26  1  0  0  0  0
  9 27  1  0  0  0  0
 10 28  1  0  0  0  0
 13 29  1  0  0  0  0
 13 30  1  0  0  0  0
 13 31  1  0  0  0  0
 14 32  1  0  0  0  0
 14 33  1  0  0  0  0
 17 34  1  0  0  0  0
 18 35  1  0  0  0  0
 18 36  1  0  0  0  0
 19 37  1  0  0  0  0
 19 38  1  0  0  0  0
M  END
>  <result-rank>
9

>  <similarity>
0.952

>  <query-name>
LIG_A_1101_2_02

>  <query-smiles>
BrC#CCNC(=O)[C@@H](NC(=O)C)Cc1ccc(O)cc1

>  <source>
REALspace_2019-12

>  <similarity-descriptor>
0.948;0.968;0.968;0.843;0.843;1.000;1.000;1.000;1.000;1.000;1.000;0.0;0.0

>  <similarity-descriptor-smiles>
Fc1cc(ccc1)F;C(F)(F)F;C(F)(F)F;NCC;NCC;C=O;CC;N;C=O;C;CC;;

>  <reaction-name>
s_22

>  <reagent1-name>
6287650

>  <reagent1-smiles>
[R1*]NCCC(F)(F)F

>  <reagent2-name>
5637262

>  <reagent2-smiles>
[R1*]C(=O)CC(NC(=O)C)c1c(F)cc(F)cc1

$$$$
s_22____13570620____17064022
          04022015103D 1   1.00000     0.00000     0
            
 49 49  0  0  0  0            999 V2000
    2.0257    5.0585   -3.3582 F   0  0  0  0  0  0  0  0  0  0  0  0
    1.9878    4.5452   -2.1318 C   0  0  0  0  0  0  0  0  0  0  0  0
    1.2234    5.3080   -1.3554 F   0  0  0  0  0  0  0  0  0  0  0  0
    3.2196    4.4984   -1.6325 F   0  0  0  0  0  0  0  0  0  0  0  0
    1.4102    3.1404   -2.1881 C   0  0  3  0  0  0  0  0  0  0  0  0
    1.6931    2.4433   -0.9252 N   0  0  0  0  0  0  0  0  0  0  0  0
    0.7075    1.7208   -0.3059 C   0  0  0  0  0  0  0  0  0  0  0  0
   -0.3868    1.6571   -0.7943 O   0  0  0  0  0  0  0  0  0  0  0  0
    1.0000    1.0000    1.0000 C   0  0  3  0  0  0  0  0  0  0  0  0
    1.8487    1.8487    1.8487 N   0  0  0  0  0  0  0  0  0  0  0  0
    3.0831    1.4052    2.2442 C   0  0  0  0  0  0  0  0  0  0  0  0
    3.4716    0.3240    1.8978 O   0  0  0  0  0  0  0  0  0  0  0  0
    3.9607    2.2828    3.1218 C   0  0  3  0  0  0  0  0  0  0  0  0
    3.2399    2.5753    4.4276 C   0  0  0  0  0  0  0  0  0  0  0  0
    4.1175    3.4529    5.3052 C   0  0  0  0  0  0  0  0  0  0  0  0
    5.2666    1.5620    3.4143 C   0  0  0  0  0  0  0  0  0  0  0  0
   -0.3059    0.7075    1.7208 C   0  0  0  0  0  0  0  0  0  0  0  0
   -0.0133   -0.0134    3.0267 C   0  0  0  0  0  0  0  0  0  0  0  0
    0.1949    0.7274    4.1855 C   0  0  0  0  0  0  0  0  0  0  0  0
    0.4621    0.0721    5.3829 C   0  0  0  0  0  0  0  0  0  0  0  0
    0.5173   -1.3180    5.4060 C   0  0  0  0  0  0  0  0  0  0  0  0
    0.7767   -1.9580    6.5658 O   0  0  0  0  0  0  0  0  0  0  0  0
    0.3102   -2.0634    4.2499 C   0  0  0  0  0  0  0  0  0  0  0  0
    0.0429   -1.4030    3.0554 C   0  0  0  0  0  0  0  0  0  0  0  0
    2.0435    2.3780   -3.3405 C   0  0  0  0  0  0  0  0  0  0  0  0
    3.3226    1.9027   -2.9476 O   0  0  0  0  0  0  0  0  0  0  0  0
    0.4211    3.1919   -2.3261 H   0  0  0  0  0  0  0  0  0  0  0  0
    2.6049    2.4964   -0.5181 H   0  0  0  0  0  0  0  0  0  0  0  0
    1.4742    0.1409    0.8075 H   0  0  0  0  0  0  0  0  0  0  0  0
    1.5250    2.7498    2.1374 H   0  0  0  0  0  0  0  0  0  0  0  0
    4.1532    3.1419    2.6475 H   0  0  0  0  0  0  0  0  0  0  0  0
    3.0475    1.7162    4.9018 H   0  0  0  0  0  0  0  0  0  0  0  0
    2.3808    3.0496    4.2352 H   0  0  0  0  0  0  0  0  0  0  0  0
    3.6433    3.6454    6.1643 H   0  0  0  0  0  0  0  0  0  0  0  0
    4.9766    2.9787    5.4976 H   0  0  0  0  0  0  0  0  0  0  0  0
    4.3099    4.3120    4.8310 H   0  0  0  0  0  0  0  0  0  0  0  0
    5.8439    2.1394    3.9916 H   0  0  0  0  0  0  0  0  0  0  0  0
    5.0741    0.7029    3.8885 H   0  0  0  0  0  0  0  0  0  0  0  0
    5.7408    1.3696    2.5552 H   0  0  0  0  0  0  0  0  0  0  0  0
   -0.7801    1.5666    1.9133 H   0  0  0  0  0  0  0  0  0  0  0  0
   -0.8832    0.1301    1.1435 H   0  0  0  0  0  0  0  0  0  0  0  0
    0.1526    1.7261    4.1579 H   0  0  0  0  0  0  0  0  0  0  0  0
    0.6134    0.5962    6.2210 H   0  0  0  0  0  0  0  0  0  0  0  0
    0.8174   -2.9569    6.5874 H   0  0  0  0  0  0  0  0  0  0  0  0
    0.3529   -3.0622    4.2773 H   0  0  0  0  0  0  0  0  0  0  0  0
   -0.1088   -1.9271    2.2174 H   0  0  0  0  0  0  0  0  0  0  0  0
    1.4614    1.6032   -3.5875 H   0  0  0  0  0  0  0  0  0  0  0  0
    2.1413    2.9858   -4.1285 H   0  0  0  0  0  0  0  0  0  0  0  0
    3.7392    1.4012   -3.7057 H   0  0  0  0  0  0  0  0  0  0  0  0
  1  2  1  0  0  0  0
  2  3  1  0  0  0  0
  2  4  1  0  0  0  0
  2  5  1  0  0  0  0
  5  6  1  0  0  0  0
  6  7  1  0  0  0  0
  7  8  2  0  0  0  0
  7  9  1  0  0  0  0
  9 10  1  0  0  0  0
 10 11  1  0  0  0  0
 11 12  2  0  0  0  0
 11 13  1  0  0  0  0
 13 14  1  0  0  0  0
 14 15  1  0  0  0  0
 13 16  1  0  0  0  0
  9 17  1  0  0  0  0
 17 18  1  0  0  0  0
 18 19  1  0  0  0  0
 19 20  2  0  0  0  0
 20 21  1  0  0  0  0
 21 22  1  0  0  0  0
 21 23  2  0  0  0  0
 23 24  1  0  0  0  0
 24 18  2  0  0  0  0
  5 25  1  0  0  0  0
 25 26  1  0  0  0  0
  5 27  1  0  0  0  0
  6 28  1  0  0  0  0
  9 29  1  0  0  0  0
 10 30  1  0  0  0  0
 13 31  1  0  0  0  0
 14 32  1  0  0  0  0
 14 33  1  0  0  0  0
 15 34  1  0  0  0  0
 15 35  1  0  0  0  0
 15 36  1  0  0  0  0
 16 37  1  0  0  0  0
 16 38  1  0  0  0  0
 16 39  1  0  0  0  0
 17 40  1  0  0  0  0
 17 41  1  0  0  0  0
 19 42  1  0  0  0  0
 20 43  1  0  0  0  0
 22 44  1  0  0  0  0
 23 45  1  0  0  0  0
 24 46  1  0  0  0  0
 25 47  1  0  0  0  0
 25 48  1  0  0  0  0
 26 49  1  0  0  0  0
M  END
>  <result-rank>
10

>  <similarity>
0.951

>  <query-name>
LIG_A_1101_2_02

>  <query-smiles>
BrC#CCNC(=O)[C@@H](NC(=O)C)Cc1ccc(O)cc1

>  <source>
REALspace_2019-12

>  <similarity-descriptor>
1.000;0.968;0.968;0.934;1.000;1.000;1.000;1.000;0.890;1.000;1.000;1.000;0.250

>  <similarity-descriptor-smiles>
c1ccccc1;FC(F)F;FC(F)F;C;N;C=O;C;N;C(=O)C;C;C;O;C.C.C.O

>  <reaction-name>
s_22

>  <reagent1-name>
13570620

>  <reagent1-smiles>
[R1*]NC(C(F)(F)F)CO

>  <reagent2-name>
17064022

>  <reagent2-smiles>
[R1*]C(=O)C(NC(=O)C(CC)C)Cc1ccc(O)cc1

$$$$
s_22____9705674____107332
          04022015103D 1   1.00000     0.00000     0
            
 42 43  0  0  0  0            999 V2000
   -2.7942    6.5503    0.7877 Cl  0  0  0  0  0  0  0  0  0  0  0  0
   -1.7679    5.1320    0.4668 C   0  0  0  0  0  0  0  0  0  0  0  0
   -2.2011    3.8654    0.8430 C   0  0  0  0  0  0  0  0  0  0  0  0
   -1.4017    2.7542    0.5947 C   0  0  0  0  0  0  0  0  0  0  0  0
   -0.1722    2.9289   -0.0315 C   0  0  0  0  0  0  0  0  0  0  0  0
    0.2615    4.1952   -0.4077 C   0  0  0  0  0  0  0  0  0  0  0  0
   -0.5380    5.3067   -0.1593 C   0  0  0  0  0  0  0  0  0  0  0  0
    0.7075    1.7208   -0.3059 C   0  0  3  0  0  0  0  0  0  0  0  0
    0.0129    0.8075   -1.2248 N   0  0  0  0  0  0  0  0  0  0  0  0
    0.5721    0.4993   -2.4369 C   0  0  0  0  0  0  0  0  0  0  0  0
    1.6288    0.9750   -2.7485 O   0  0  0  0  0  0  0  0  0  0  0  0
   -0.1461   -0.4450   -3.3871 C   0  0  0  0  0  0  0  0  0  0  0  0
    1.0000    1.0000    1.0000 C   0  0  0  0  0  0  0  0  0  0  0  0
    1.8776    1.8776    1.8776 C   0  0  0  0  0  0  0  0  0  0  0  0
    1.9688    3.0524    1.6507 O   0  0  0  0  0  0  0  0  0  0  0  0
    2.5644    1.3273    2.9275 N   0  0  0  0  0  0  0  0  0  0  0  0
    3.4131    2.1760    3.7762 C   0  0  0  0  0  0  0  0  0  0  0  0
    4.0574    1.3262    4.8593 C   0  0  0  0  0  0  0  0  0  0  0  0
    3.1098    0.7623    5.6029 F   0  0  0  0  0  0  0  0  0  0  0  0
    4.8011    0.3785    4.2954 F   0  0  0  0  0  0  0  0  0  0  0  0
    4.9354    2.2041    5.7372 C   0  0  0  0  0  0  0  0  0  0  0  0
    4.1286    3.2874    6.3915 C   0  0  0  0  0  0  0  0  0  0  0  0
    5.0239    3.6151    5.2311 C   0  0  0  0  0  0  0  0  0  0  0  0
   -3.0875    3.7532    1.2922 H   0  0  0  0  0  0  0  0  0  0  0  0
   -1.7075    1.8408    0.8633 H   0  0  0  0  0  0  0  0  0  0  0  0
    1.1480    4.3073   -0.8567 H   0  0  0  0  0  0  0  0  0  0  0  0
   -0.2321    6.2202   -0.4276 H   0  0  0  0  0  0  0  0  0  0  0  0
    1.5665    2.0212   -0.7205 H   0  0  0  0  0  0  0  0  0  0  0  0
   -0.8677    0.4111   -0.9651 H   0  0  0  0  0  0  0  0  0  0  0  0
   -1.0051   -0.7454   -2.9725 H   0  0  0  0  0  0  0  0  0  0  0  0
   -0.3386    0.0292   -4.2462 H   0  0  0  0  0  0  0  0  0  0  0  0
    0.4329   -1.2401   -3.5676 H   0  0  0  0  0  0  0  0  0  0  0  0
    0.1409    0.8075    1.4742 H   0  0  0  0  0  0  0  0  0  0  0  0
    1.4742    0.1409    0.8075 H   0  0  0  0  0  0  0  0  0  0  0  0
    2.4883    0.3483    3.1166 H   0  0  0  0  0  0  0  0  0  0  0  0
    2.8540    2.8885    4.2002 H   0  0  0  0  0  0  0  0  0  0  0  0
    4.1256    2.5999    3.2171 H   0  0  0  0  0  0  0  0  0  0  0  0
    5.7115    1.8017    6.2226 H   0  0  0  0  0  0  0  0  0  0  0  0
    4.3662    3.6018    7.3106 H   0  0  0  0  0  0  0  0  0  0  0  0
    3.1353    3.3087    6.2783 H   0  0  0  0  0  0  0  0  0  0  0  0
    4.6267    3.8544    4.3451 H   0  0  0  0  0  0  0  0  0  0  0  0
    5.8576    4.1475    5.3774 H   0  0  0  0  0  0  0  0  0  0  0  0
  1  2  1  0  0  0  0
  2  3  1  0  0  0  0
  3  4  2  0  0  0  0
  4  5  1  0  0  0  0
  5  6  2  0  0  0  0
  6  7  1  0  0  0  0
  7  2  2  0  0  0  0
  5  8  1  0  0  0  0
  8  9  1  0  0  0  0
  9 10  1  0  0  0  0
 10 11  2  0  0  0  0
 10 12  1  0  0  0  0
  8 13  1  0  0  0  0
 13 14  1  0  0  0  0
 14 15  2  0  0  0  0
 14 16  1  0  0  0  0
 16 17  1  0  0  0  0
 17 18  1  0  0  0  0
 18 19  1  0  0  0  0
 18 20  1  0  0  0  0
 18 21  1  0  0  0  0
 21 22  1  0  0  0  0
 22 23  1  0  0  0  0
 23 21  1  0  0  0  0
  3 24  1  0  0  0  0
  4 25  1  0  0  0  0
  6 26  1  0  0  0  0
  7 27  1  0  0  0  0
  8 28  1  0  0  0  0
  9 29  1  0  0  0  0
 12 30  1  0  0  0  0
 12 31  1  0  0  0  0
 12 32  1  0  0  0  0
 13 33  1  0  0  0  0
 13 34  1  0  0  0  0
 16 35  1  0  0  0  0
 17 36  1  0  0  0  0
 17 37  1  0  0  0  0
 21 38  1  0  0  0  0
 22 39  1  0  0  0  0
 22 40  1  0  0  0  0
 23 41  1  0  0  0  0
 23 42  1  0  0  0  0
M  END
>  <result-rank>
11

>  <similarity>
0.950

>  <query-name>
LIG_A_1101_2_02

>  <query-smiles>
BrC#CCNC(=O)[C@@H](NC(=O)C)Cc1ccc(O)cc1

>  <source>
REALspace_2019-12

>  <similarity-descriptor>
0.968;0.959;0.939;0.939;1.000;1.000;1.000;1.000;1.000;1.000;1.000;0.0;0.091

>  <similarity-descriptor-smiles>
Clc1ccccc1;C(F)F;C;C;N;C=O;CC;N;C=O;C;CC;;C1CC1

>  <reaction-name>
s_22

>  <reagent1-name>
9705674

>  <reagent1-smiles>
[R1*]NCC(F)(F)C1CC1

>  <reagent2-name>
107332

>  <reagent2-smiles>
[R1*]C(=O)CC(NC(=O)C)c1ccc(Cl)cc1

$$$$
s_22____9283038____107332
          04022015103D 1   1.00000     0.00000     0
            
 38 38  0  0  0  0            999 V2000
    1.6287   -2.8076   -4.4731 Cl  0  0  0  0  0  0  0  0  0  0  0  0
    2.0403   -1.5646   -3.2675 C   0  0  0  0  0  0  0  0  0  0  0  0
    2.8044   -1.9046   -2.1567 C   0  0  0  0  0  0  0  0  0  0  0  0
    3.1278   -0.9363   -1.2116 C   0  0  0  0  0  0  0  0  0  0  0  0
    2.6787    0.3673   -1.3944 C   0  0  0  0  0  0  0  0  0  0  0  0
    1.9143    0.7077   -2.5049 C   0  0  0  0  0  0  0  0  0  0  0  0
    1.5908   -0.2609   -3.4501 C   0  0  0  0  0  0  0  0  0  0  0  0
    3.0267    1.4309   -0.3667 C   0  0  3  0  0  0  0  0  0  0  0  0
    4.4855    1.6046   -0.3161 N   0  0  0  0  0  0  0  0  0  0  0  0
    5.0404    2.8242   -0.6018 C   0  0  0  0  0  0  0  0  0  0  0  0
    4.3356    3.7506   -0.8934 O   0  0  0  0  0  0  0  0  0  0  0  0
    6.5489    3.0038   -0.5495 C   0  0  0  0  0  0  0  0  0  0  0  0
    2.5200    1.0000    1.0000 C   0  0  0  0  0  0  0  0  0  0  0  0
    1.0000    1.0000    1.0000 C   0  0  0  0  0  0  0  0  0  0  0  0
    0.4000    1.0000   -0.0392 O   0  0  0  0  0  0  0  0  0  0  0  0
    0.3150    1.0000    2.1865 N   0  0  0  0  0  0  0  0  0  0  0  0
   -1.1550    1.0000    2.1865 C   0  0  0  0  0  0  0  0  0  0  0  0
   -1.6617    1.0000    3.6195 C   0  0  0  0  0  0  0  0  0  0  0  0
   -1.2183   -0.0859    4.2465 F   0  0  0  0  0  0  0  0  0  0  0  0
   -1.2183    2.0859    4.2465 F   0  0  0  0  0  0  0  0  0  0  0  0
   -3.1817    1.0000    3.6195 C   0  0  0  0  0  0  0  0  0  0  0  0
   -3.6250    1.0000    4.8735 F   0  0  0  0  0  0  0  0  0  0  0  0
   -3.6250    2.0859    2.9926 F   0  0  0  0  0  0  0  0  0  0  0  0
    3.1216   -2.8454   -2.0371 H   0  0  0  0  0  0  0  0  0  0  0  0
    3.6767   -1.1747   -0.4104 H   0  0  0  0  0  0  0  0  0  0  0  0
    1.5971    1.6485   -2.6242 H   0  0  0  0  0  0  0  0  0  0  0  0
    1.0417   -0.0225   -4.2512 H   0  0  0  0  0  0  0  0  0  0  0  0
    2.5967    2.2963   -0.6240 H   0  0  0  0  0  0  0  0  0  0  0  0
    5.0728    0.8326   -0.0731 H   0  0  0  0  0  0  0  0  0  0  0  0
    6.9789    2.1384   -0.2922 H   0  0  0  0  0  0  0  0  0  0  0  0
    6.8822    3.2873   -1.4486 H   0  0  0  0  0  0  0  0  0  0  0  0
    6.7779    3.7039    0.1269 H   0  0  0  0  0  0  0  0  0  0  0  0
    2.8533    0.0795    1.2041 H   0  0  0  0  0  0  0  0  0  0  0  0
    2.8533    1.6370    1.6951 H   0  0  0  0  0  0  0  0  0  0  0  0
    0.8150    1.0000    3.0525 H   0  0  0  0  0  0  0  0  0  0  0  0
   -1.4883    0.1835    1.7151 H   0  0  0  0  0  0  0  0  0  0  0  0
   -1.4883    1.8165    1.7151 H   0  0  0  0  0  0  0  0  0  0  0  0
   -3.5150    0.1835    3.1481 H   0  0  0  0  0  0  0  0  0  0  0  0
  1  2  1  0  0  0  0
  2  3  1  0  0  0  0
  3  4  2  0  0  0  0
  4  5  1  0  0  0  0
  5  6  2  0  0  0  0
  6  7  1  0  0  0  0
  7  2  2  0  0  0  0
  5  8  1  0  0  0  0
  8  9  1  0  0  0  0
  9 10  1  0  0  0  0
 10 11  2  0  0  0  0
 10 12  1  0  0  0  0
  8 13  1  0  0  0  0
 13 14  1  0  0  0  0
 14 15  2  0  0  0  0
 14 16  1  0  0  0  0
 16 17  1  0  0  0  0
 17 18  1  0  0  0  0
 18 19  1  0  0  0  0
 18 20  1  0  0  0  0
 18 21  1  0  0  0  0
 21 22  1  0  0  0  0
 21 23  1  0  0  0  0
  3 24  1  0  0  0  0
  4 25  1  0  0  0  0
  6 26  1  0  0  0  0
  7 27  1  0  0  0  0
  8 28  1  0  0  0  0
  9 29  1  0  0  0  0
 12 30  1  0  0  0  0
 12 31  1  0  0  0  0
 12 32  1  0  0  0  0
 13 33  1  0  0  0  0
 13 34  1  0  0  0  0
 16 35  1  0  0  0  0
 17 36  1  0  0  0  0
 17 37  1  0  0  0  0
 21 38  1  0  0  0  0
M  END
>  <result-rank>
12

>  <similarity>
0.950

>  <query-name>
LIG_A_1101_2_02

>  <query-smiles>
BrC#CCNC(=O)[C@@H](NC(=O)C)Cc1ccc(O)cc1

>  <source>
REALspace_2019-12

>  <similarity-descriptor>
0.968;0.959;0.939;0.939;1.000;1.000;1.000;1.000;1.000;1.000;1.000;0.0;0.091

>  <similarity-descriptor-smiles>
Clc1ccccc1;C(F)F;C;C;N;C=O;CC;N;C=O;C;CC;;C(F)F

>  <reaction-name>
s_22

>  <reagent1-name>
9283038

>  <reagent1-smiles>
[R1*]NCC(F)(F)C(F)F

>  <reagent2-name>
107332

>  <reagent2-smiles>
[R1*]C(=O)CC(NC(=O)C)c1ccc(Cl)cc1

$$$$
s_188690b____15429296____5367140
          04022015103D 1   1.00000     0.00000     0
            
 37 37  0  0  0  0            999 V2000
    1.6287   -2.8076   -4.4731 Cl  0  0  0  0  0  0  0  0  0  0  0  0
    2.0403   -1.5646   -3.2675 C   0  0  0  0  0  0  0  0  0  0  0  0
    2.8044   -1.9046   -2.1567 C   0  0  0  0  0  0  0  0  0  0  0  0
    3.1278   -0.9363   -1.2116 C   0  0  0  0  0  0  0  0  0  0  0  0
    2.6787    0.3673   -1.3944 C   0  0  0  0  0  0  0  0  0  0  0  0
    1.9143    0.7077   -2.5049 C   0  0  0  0  0  0  0  0  0  0  0  0
    1.5908   -0.2609   -3.4501 C   0  0  0  0  0  0  0  0  0  0  0  0
    3.0267    1.4309   -0.3667 C   0  0  3  0  0  0  0  0  0  0  0  0
    4.4855    1.6046   -0.3161 N   0  0  0  0  0  0  0  0  0  0  0  0
    5.0404    2.8242   -0.6018 C   0  0  0  0  0  0  0  0  0  0  0  0
    4.3356    3.7506   -0.8934 O   0  0  0  0  0  0  0  0  0  0  0  0
    6.5489    3.0038   -0.5495 C   0  0  0  0  0  0  0  0  0  0  0  0
    2.5200    1.0000    1.0000 C   0  0  0  0  0  0  0  0  0  0  0  0
    1.0000    1.0000    1.0000 C   0  0  0  0  0  0  0  0  0  0  0  0
    0.4000    1.0000   -0.0392 O   0  0  0  0  0  0  0  0  0  0  0  0
    0.3150    1.0000    2.1865 N   0  0  0  0  0  0  0  0  0  0  0  0
   -1.1550    1.0000    2.1865 C   0  0  0  0  0  0  0  0  0  0  0  0
   -1.6617    1.0000    3.6195 C   0  0  0  0  0  0  0  0  0  0  0  0
   -1.2183   -0.0859    4.2465 F   0  0  0  0  0  0  0  0  0  0  0  0
   -1.2183    2.0859    4.2465 F   0  0  0  0  0  0  0  0  0  0  0  0
   -3.1817    1.0000    3.6195 C   0  0  0  0  0  0  0  0  0  0  0  0
   -3.7867    0.0925    3.0956 O   0  5  0  0  0  0  0  0  0  0  0  0
   -3.8067    1.9375    4.1608 O   0  0  0  0  0  0  0  0  0  0  0  0
    3.1216   -2.8454   -2.0371 H   0  0  0  0  0  0  0  0  0  0  0  0
    3.6767   -1.1747   -0.4104 H   0  0  0  0  0  0  0  0  0  0  0  0
    1.5971    1.6485   -2.6242 H   0  0  0  0  0  0  0  0  0  0  0  0
    1.0417   -0.0225   -4.2512 H   0  0  0  0  0  0  0  0  0  0  0  0
    2.5967    2.2963   -0.6240 H   0  0  0  0  0  0  0  0  0  0  0  0
    5.0728    0.8326   -0.0731 H   0  0  0  0  0  0  0  0  0  0  0  0
    6.9789    2.1384   -0.2922 H   0  0  0  0  0  0  0  0  0  0  0  0
    6.8822    3.2873   -1.4486 H   0  0  0  0  0  0  0  0  0  0  0  0
    6.7779    3.7039    0.1269 H   0  0  0  0  0  0  0  0  0  0  0  0
    2.8533    0.0795    1.2041 H   0  0  0  0  0  0  0  0  0  0  0  0
    2.8533    1.6370    1.6951 H   0  0  0  0  0  0  0  0  0  0  0  0
    0.8150    1.0000    3.0525 H   0  0  0  0  0  0  0  0  0  0  0  0
   -1.4883    0.1835    1.7151 H   0  0  0  0  0  0  0  0  0  0  0  0
   -1.4883    1.8165    1.7151 H   0  0  0  0  0  0  0  0  0  0  0  0
  1  2  1  0  0  0  0
  2  3  1  0  0  0  0
  3  4  2  0  0  0  0
  4  5  1  0  0  0  0
  5  6  2  0  0  0  0
  6  7  1  0  0  0  0
  7  2  2  0  0  0  0
  5  8  1  0  0  0  0
  8  9  1  0  0  0  0
  9 10  1  0  0  0  0
 10 11  2  0  0  0  0
 10 12  1  0  0  0  0
  8 13  1  0  0  0  0
 13 14  1  0  0  0  0
 14 15  2  0  0  0  0
 14 16  1  0  0  0  0
 16 17  1  0  0  0  0
 17 18  1  0  0  0  0
 18 19  1  0  0  0  0
 18 20  1  0  0  0  0
 18 21  1  0  0  0  0
 21 22  1  0  0  0  0
 21 23  2  0  0  0  0
  3 24  1  0  0  0  0
  4 25  1  0  0  0  0
  6 26  1  0  0  0  0
  7 27  1  0  0  0  0
  8 28  1  0  0  0  0
  9 29  1  0  0  0  0
 12 30  1  0  0  0  0
 12 31  1  0  0  0  0
 12 32  1  0  0  0  0
 13 33  1  0  0  0  0
 13 34  1  0  0  0  0
 16 35  1  0  0  0  0
 17 36  1  0  0  0  0
 17 37  1  0  0  0  0
M  CHG  1  22  -1
M  END
>  <result-rank>
13

>  <similarity>
0.950

>  <query-name>
LIG_A_1101_2_02

>  <query-smiles>
BrC#CCNC(=O)[C@@H](NC(=O)C)Cc1ccc(O)cc1

>  <source>
REALspace_2019-12

>  <similarity-descriptor>
0.968;0.959;0.939;0.939;1.000;1.000;1.000;1.000;1.000;1.000;1.000;0.0;0.091

>  <similarity-descriptor-smiles>
Clc1ccccc1;C(F)F;C;C;N;C=O;CC;N;C=O;C;CC;;C([O-])=O

>  <reaction-name>
s_188690b

>  <reagent1-name>
15429296

>  <reagent1-smiles>
[R1*]NCC(F)(F)C(=O)O

>  <reagent2-name>
5367140

>  <reagent2-smiles>
[R1*]C(=O)CC(NC(=O)C)c1ccc(Cl)cc1

$$$$
s_527a____12347510____17513452
          04022015103D 1   1.00000     0.00000     0
            
 40 40  0  0  0  0            999 V2000
    4.3033   -2.3486   -1.5927 F   0  0  0  0  0  0  0  0  0  0  0  0
    4.0817   -1.9647   -0.3388 C   0  0  0  0  0  0  0  0  0  0  0  0
    5.2438   -1.8057    0.2882 F   0  0  0  0  0  0  0  0  0  0  0  0
    3.3629   -2.8916    0.2882 F   0  0  0  0  0  0  0  0  0  0  0  0
    3.3217   -0.6483   -0.3388 C   0  0  0  0  0  0  0  0  0  0  0  0
    3.0850   -0.2384    1.0000 O   0  0  0  0  0  0  0  0  0  0  0  0
    2.3700    1.0000    1.0000 N   0  0  0  0  0  0  0  0  0  0  0  0
    1.0000    1.0000    1.0000 C   0  0  0  0  0  0  0  0  0  0  0  0
    0.4000   -0.0392    1.0000 O   0  0  0  0  0  0  0  0  0  0  0  0
    0.2400    2.3164    1.0000 C   0  0  3  0  0  0  0  0  0  0  0  0
   -1.0444    2.1406    1.6930 N   0  0  0  0  0  0  0  0  0  0  0  0
   -1.1292    2.3553    3.0434 C   0  0  0  0  0  0  0  0  0  0  0  0
   -0.1550    2.6868    3.6605 O   0  0  0  0  0  0  0  0  0  0  0  0
   -2.4574    2.1735    3.7599 C   0  0  0  0  0  0  0  0  0  0  0  0
   -0.0133    2.7551   -0.4331 C   0  0  0  0  0  0  0  0  0  0  0  0
   -0.7734    4.0715   -0.4331 C   0  0  0  0  0  0  0  0  0  0  0  0
   -0.0668    5.2697   -0.4331 C   0  0  0  0  0  0  0  0  0  0  0  0
   -0.7580    6.4767   -0.4338 C   0  0  0  0  0  0  0  0  0  0  0  0
   -2.1493    6.4698   -0.4351 C   0  0  0  0  0  0  0  0  0  0  0  0
   -2.8591    7.6996   -0.4355 O   0  0  0  0  0  0  0  0  0  0  0  0
   -2.8607    5.2743   -0.4347 C   0  0  0  0  0  0  0  0  0  0  0  0
   -2.1644    4.0703   -0.4344 C   0  0  0  0  0  0  0  0  0  0  0  0
    3.1050    2.2731    1.0000 C   0  0  0  0  0  0  0  0  0  0  0  0
    3.8621    0.0486   -0.8102 H   0  0  0  0  0  0  0  0  0  0  0  0
    2.4479   -0.7679   -0.8102 H   0  0  0  0  0  0  0  0  0  0  0  0
    0.7804    3.0133    1.4714 H   0  0  0  0  0  0  0  0  0  0  0  0
   -1.8563    1.8643    1.1787 H   0  0  0  0  0  0  0  0  0  0  0  0
   -3.1569    1.8980    3.1005 H   0  0  0  0  0  0  0  0  0  0  0  0
   -2.3637    1.4670    4.4614 H   0  0  0  0  0  0  0  0  0  0  0  0
   -2.7253    3.0361    4.1892 H   0  0  0  0  0  0  0  0  0  0  0  0
    0.8604    2.8747   -0.9045 H   0  0  0  0  0  0  0  0  0  0  0  0
   -0.5538    2.0582   -0.9045 H   0  0  0  0  0  0  0  0  0  0  0  0
    0.9332    5.2634   -0.4325 H   0  0  0  0  0  0  0  0  0  0  0  0
   -0.2586    7.3431   -0.4335 H   0  0  0  0  0  0  0  0  0  0  0  0
   -3.8591    7.6997   -0.4364 H   0  0  0  0  0  0  0  0  0  0  0  0
   -3.8607    5.2805   -0.4347 H   0  0  0  0  0  0  0  0  0  0  0  0
   -2.6638    3.2039   -0.4351 H   0  0  0  0  0  0  0  0  0  0  0  0
    2.4552    3.0331    1.0000 H   0  0  0  0  0  0  0  0  0  0  0  0
    3.6799    2.3260    1.8165 H   0  0  0  0  0  0  0  0  0  0  0  0
    3.6799    2.3260    0.1835 H   0  0  0  0  0  0  0  0  0  0  0  0
  1  2  1  0  0  0  0
  2  3  1  0  0  0  0
  2  4  1  0  0  0  0
  2  5  1  0  0  0  0
  5  6  1  0  0  0  0
  6  7  1  0  0  0  0
  7  8  1  0  0  0  0
  8  9  2  0  0  0  0
  8 10  1  0  0  0  0
 10 11  1  0  0  0  0
 11 12  1  0  0  0  0
 12 13  2  0  0  0  0
 12 14  1  0  0  0  0
 10 15  1  0  0  0  0
 15 16  1  0  0  0  0
 16 17  1  0  0  0  0
 17 18  2  0  0  0  0
 18 19  1  0  0  0  0
 19 20  1  0  0  0  0
 19 21  2  0  0  0  0
 21 22  1  0  0  0  0
 22 16  2  0  0  0  0
  7 23  1  0  0  0  0
  5 24  1  0  0  0  0
  5 25  1  0  0  0  0
 10 26  1  0  0  0  0
 11 27  1  0  0  0  0
 14 28  1  0  0  0  0
 14 29  1  0  0  0  0
 14 30  1  0  0  0  0
 15 31  1  0  0  0  0
 15 32  1  0  0  0  0
 17 33  1  0  0  0  0
 18 34  1  0  0  0  0
 20 35  1  0  0  0  0
 21 36  1  0  0  0  0
 22 37  1  0  0  0  0
 23 38  1  0  0  0  0
 23 39  1  0  0  0  0
 23 40  1  0  0  0  0
M  END
>  <result-rank>
14

>  <similarity>
0.950

>  <query-name>
LIG_A_1101_2_02

>  <query-smiles>
BrC#CCNC(=O)[C@@H](NC(=O)C)Cc1ccc(O)cc1

>  <source>
REALspace_2019-12

>  <similarity-descriptor>
1.000;0.968;0.968;0.998;0.294;0.967;1.000;1.000;1.000;1.000;1.000;1.000;0.077

>  <similarity-descriptor-smiles>
c1ccccc1;FC(F)F;FC(F)F;C;O;NC=O;C;N;C=O;C;C;O;C

>  <reaction-name>
s_527a

>  <reagent1-name>
12347510

>  <reagent1-smiles>
[R1*]N(OCC(F)(F)F)C

>  <reagent2-name>
17513452

>  <reagent2-smiles>
[R1*]C(=O)C(NC(=O)C)Cc1ccc(O)cc1

$$$$
s_22____9750152____17513450
          04022015103D 1   1.00000     0.00000     0
            
 39 39  0  0  0  0            999 V2000
    0.4000    1.0000   -0.0392 O   0  0  0  0  0  0  0  0  0  0  0  0
    1.0000    1.0000    1.0000 C   0  0  0  0  0  0  0  0  0  0  0  0
    0.3150    1.0000    2.1865 N   0  0  0  0  0  0  0  0  0  0  0  0
   -1.1550    1.0000    2.1865 C   0  0  0  0  0  0  0  0  0  0  0  0
   -1.6617   -0.4331    2.1865 C   0  0  0  0  0  0  0  0  0  0  0  0
   -2.0417   -1.5079    2.1865 N   0  0  0  0  0  0  0  0  0  0  0  0
    1.0500    1.0000    3.4595 C   0  0  0  0  0  0  0  0  0  0  0  0
    1.3033    2.4331    3.8983 C   0  0  0  0  0  0  0  0  0  0  0  0
    1.5017    3.5550    4.2418 C   0  0  0  0  0  0  0  0  0  0  0  0
    2.5200    1.0000    1.0000 C   0  0  3  0  0  0  0  0  0  0  0  0
    3.0100    1.6930   -0.2002 N   0  0  0  0  0  0  0  0  0  0  0  0
    3.2383    3.0434   -0.1663 C   0  0  0  0  0  0  0  0  0  0  0  0
    3.0383    3.6605    0.8432 O   0  0  0  0  0  0  0  0  0  0  0  0
    3.7450    3.7599   -1.4074 C   0  0  0  0  0  0  0  0  0  0  0  0
    3.0267   -0.4331    1.0000 C   0  0  0  0  0  0  0  0  0  0  0  0
    4.5467   -0.4331    1.0000 C   0  0  0  0  0  0  0  0  0  0  0  0
    5.2311   -0.4331    2.2110 C   0  0  0  0  0  0  0  0  0  0  0  0
    6.6219   -0.4338    2.2159 C   0  0  0  0  0  0  0  0  0  0  0  0
    7.3116   -0.4351    1.0075 C   0  0  0  0  0  0  0  0  0  0  0  0
    8.7316   -0.4355    1.0077 O   0  0  0  0  0  0  0  0  0  0  0  0
    6.6320   -0.4347   -0.2063 C   0  0  0  0  0  0  0  0  0  0  0  0
    5.2412   -0.4344   -0.2053 C   0  0  0  0  0  0  0  0  0  0  0  0
   -1.4883    1.4714    1.3700 H   0  0  0  0  0  0  0  0  0  0  0  0
   -1.4883    1.4714    3.0030 H   0  0  0  0  0  0  0  0  0  0  0  0
    1.9238    0.5286    3.3399 H   0  0  0  0  0  0  0  0  0  0  0  0
    0.5096    0.5286    4.1564 H   0  0  0  0  0  0  0  0  0  0  0  0
    1.6683    4.4978    4.5305 H   0  0  0  0  0  0  0  0  0  0  0  0
    2.8533    1.4714    1.8165 H   0  0  0  0  0  0  0  0  0  0  0  0
    3.1767    1.1787   -1.0415 H   0  0  0  0  0  0  0  0  0  0  0  0
    3.8561    3.1005   -2.1510 H   0  0  0  0  0  0  0  0  0  0  0  0
    3.0863    4.4614   -1.6796 H   0  0  0  0  0  0  0  0  0  0  0  0
    4.6259    4.1892   -1.2082 H   0  0  0  0  0  0  0  0  0  0  0  0
    2.6933   -0.9045    1.8165 H   0  0  0  0  0  0  0  0  0  0  0  0
    2.6933   -0.9045    0.1835 H   0  0  0  0  0  0  0  0  0  0  0  0
    4.7256   -0.4325    3.0738 H   0  0  0  0  0  0  0  0  0  0  0  0
    7.1226   -0.4335    3.0815 H   0  0  0  0  0  0  0  0  0  0  0  0
    9.2317   -0.4364    0.1417 H   0  0  0  0  0  0  0  0  0  0  0  0
    7.1374   -0.4347   -1.0692 H   0  0  0  0  0  0  0  0  0  0  0  0
    4.7405   -0.4351   -1.0710 H   0  0  0  0  0  0  0  0  0  0  0  0
  1  2  2  0  0  0  0
  2  3  1  0  0  0  0
  3  4  1  0  0  0  0
  4  5  1  0  0  0  0
  5  6  3  0  0  0  0
  3  7  1  0  0  0  0
  7  8  1  0  0  0  0
  8  9  3  0  0  0  0
  2 10  1  0  0  0  0
 10 11  1  0  0  0  0
 11 12  1  0  0  0  0
 12 13  2  0  0  0  0
 12 14  1  0  0  0  0
 10 15  1  0  0  0  0
 15 16  1  0  0  0  0
 16 17  1  0  0  0  0
 17 18  2  0  0  0  0
 18 19  1  0  0  0  0
 19 20  1  0  0  0  0
 19 21  2  0  0  0  0
 21 22  1  0  0  0  0
 22 16  2  0  0  0  0
  4 23  1  0  0  0  0
  4 24  1  0  0  0  0
  7 25  1  0  0  0  0
  7 26  1  0  0  0  0
  9 27  1  0  0  0  0
 10 28  1  0  0  0  0
 11 29  1  0  0  0  0
 14 30  1  0  0  0  0
 14 31  1  0  0  0  0
 14 32  1  0  0  0  0
 15 33  1  0  0  0  0
 15 34  1  0  0  0  0
 17 35  1  0  0  0  0
 18 36  1  0  0  0  0
 20 37  1  0  0  0  0
 21 38  1  0  0  0  0
 22 39  1  0  0  0  0
M  END
>  <result-rank>
15

>  <similarity>
0.950

>  <query-name>
LIG_A_1101_2_02

>  <query-smiles>
BrC#CCNC(=O)[C@@H](NC(=O)C)Cc1ccc(O)cc1

>  <source>
REALspace_2019-12

>  <similarity-descriptor>
1.000;0.911;0.983;0.983;0.852;0.852;1.000;1.000;1.000;1.000;1.000;1.000;0.143

>  <similarity-descriptor-smiles>
c1ccccc1;C;NCC;NCC;O=C;O=C;C;N;C=O;C;C;O;C.C#N

>  <reaction-name>
s_22

>  <reagent1-name>
9750152

>  <reagent1-smiles>
[R1*]N(CC#N)CC#C

>  <reagent2-name>
17513450

>  <reagent2-smiles>
[R1*]C(=O)C(NC(=O)C)Cc1ccc(O)cc1

$$$$
s_22____12206138____9276244
          04022015103D 1   1.00000     0.00000     0
            
 47 47  0  0  0  0            999 V2000
    4.5433    2.3831    4.3378 F   0  0  0  0  0  0  0  0  0  0  0  0
    4.9867    2.8120    3.1595 C   0  0  0  0  0  0  0  0  0  0  0  0
    6.3167    2.8120    3.1595 F   0  0  0  0  0  0  0  0  0  0  0  0
    4.5433    4.0469    2.9417 F   0  0  0  0  0  0  0  0  0  0  0  0
    4.4800    1.8909    2.0617 C   0  0  0  0  0  0  0  0  0  0  0  0
    3.0100    1.8909    2.0617 N   0  3  3  0  0  0  0  0  0  0  0  0
    2.5200    1.0000    1.0000 C   0  0  3  0  0  0  0  0  0  0  0  0
    1.0000    1.0000    1.0000 C   0  0  0  0  0  0  0  0  0  0  0  0
    0.4000    1.0000   -0.0392 O   0  0  0  0  0  0  0  0  0  0  0  0
    0.3150    1.0000    2.1865 N   0  0  0  0  0  0  0  0  0  0  0  0
   -1.1550    1.0000    2.1865 C   0  0  3  0  0  0  0  0  0  0  0  0
   -1.6617    2.2411    2.9030 C   0  0  0  0  0  0  0  0  0  0  0  0
   -2.6122    2.1672    3.6317 O   0  0  0  0  0  0  0  0  0  0  0  0
   -1.0606    3.3914    2.7251 O   0  0  0  0  0  0  0  0  0  0  0  0
   -1.5340    4.5508    3.3945 C   0  0  0  0  0  0  0  0  0  0  0  0
   -1.6617   -0.2411    2.9030 C   0  0  0  0  0  0  0  0  0  0  0  0
   -1.1548   -1.4825    2.1862 C   0  0  0  0  0  0  0  0  0  0  0  0
   -1.9070   -2.0504    1.1626 C   0  0  0  0  0  0  0  0  0  0  0  0
   -3.0892   -1.5123    0.7936 O   0  0  0  0  0  0  0  0  0  0  0  0
   -1.4433   -3.1866    0.5068 C   0  0  0  0  0  0  0  0  0  0  0  0
   -0.2273   -3.7543    0.8744 C   0  0  0  0  0  0  0  0  0  0  0  0
    0.5248   -3.1857    1.8976 C   0  0  0  0  0  0  0  0  0  0  0  0
    0.0611   -2.0496    2.5529 C   0  0  0  0  0  0  0  0  0  0  0  0
    3.0267   -0.4113    1.2488 C   0  0  0  0  0  0  0  0  0  0  0  0
    2.5200    3.2557    1.8210 C   0  0  0  0  0  0  0  0  0  0  0  0
    2.6767    1.5684    2.9476 H   0  0  0  0  0  0  0  0  0  0  0  0
    4.8133    2.2133    1.1757 H   0  0  0  0  0  0  0  0  0  0  0  0
    4.8133    0.9624    2.2254 H   0  0  0  0  0  0  0  0  0  0  0  0
    2.8533    1.3225    0.1140 H   0  0  0  0  0  0  0  0  0  0  0  0
    0.8150    1.0000    3.0525 H   0  0  0  0  0  0  0  0  0  0  0  0
   -1.4883    1.0000    1.2436 H   0  0  0  0  0  0  0  0  0  0  0  0
   -0.9641    5.3345    3.1471 H   0  0  0  0  0  0  0  0  0  0  0  0
   -2.4804    4.7284    3.1247 H   0  0  0  0  0  0  0  0  0  0  0  0
   -1.4907    4.4060    4.3830 H   0  0  0  0  0  0  0  0  0  0  0  0
   -1.3283   -0.2411    3.8458 H   0  0  0  0  0  0  0  0  0  0  0  0
   -2.6617   -0.2411    2.9030 H   0  0  0  0  0  0  0  0  0  0  0  0
   -3.6203   -1.9299    0.0564 H   0  0  0  0  0  0  0  0  0  0  0  0
   -1.9840   -3.5951   -0.2286 H   0  0  0  0  0  0  0  0  0  0  0  0
    0.1061   -4.5709    0.4033 H   0  0  0  0  0  0  0  0  0  0  0  0
    1.3987   -3.5937    2.1620 H   0  0  0  0  0  0  0  0  0  0  0  0
    0.6021   -1.6406    3.2878 H   0  0  0  0  0  0  0  0  0  0  0  0
    2.6933   -1.0173    0.5266 H   0  0  0  0  0  0  0  0  0  0  0  0
    4.0267   -0.4113    1.2488 H   0  0  0  0  0  0  0  0  0  0  0  0
    2.6933   -0.7338    2.1348 H   0  0  0  0  0  0  0  0  0  0  0  0
    2.8533    3.8618    2.5433 H   0  0  0  0  0  0  0  0  0  0  0  0
    2.8533    3.5782    0.9351 H   0  0  0  0  0  0  0  0  0  0  0  0
    1.5200    3.2557    1.8210 H   0  0  0  0  0  0  0  0  0  0  0  0
  1  2  1  0  0  0  0
  2  3  1  0  0  0  0
  2  4  1  0  0  0  0
  2  5  1  0  0  0  0
  5  6  1  0  0  0  0
  6  7  1  0  0  0  0
  7  8  1  0  0  0  0
  8  9  2  0  0  0  0
  8 10  1  0  0  0  0
 10 11  1  0  0  0  0
 11 12  1  0  0  0  0
 12 13  2  0  0  0  0
 12 14  1  0  0  0  0
 14 15  1  0  0  0  0
 11 16  1  0  0  0  0
 16 17  1  0  0  0  0
 17 18  1  0  0  0  0
 18 19  1  0  0  0  0
 18 20  2  0  0  0  0
 20 21  1  0  0  0  0
 21 22  2  0  0  0  0
 22 23  1  0  0  0  0
 23 17  2  0  0  0  0
  7 24  1  0  0  0  0
  6 25  1  0  0  0  0
  6 26  1  0  0  0  0
  5 27  1  0  0  0  0
  5 28  1  0  0  0  0
  7 29  1  0  0  0  0
 10 30  1  0  0  0  0
 11 31  1  0  0  0  0
 15 32  1  0  0  0  0
 15 33  1  0  0  0  0
 15 34  1  0  0  0  0
 16 35  1  0  0  0  0
 16 36  1  0  0  0  0
 19 37  1  0  0  0  0
 20 38  1  0  0  0  0
 21 39  1  0  0  0  0
 22 40  1  0  0  0  0
 23 41  1  0  0  0  0
 24 42  1  0  0  0  0
 24 43  1  0  0  0  0
 24 44  1  0  0  0  0
 25 45  1  0  0  0  0
 25 46  1  0  0  0  0
 25 47  1  0  0  0  0
M  CHG  1   6   1
M  END
>  <result-rank>
16

>  <similarity>
0.950

>  <query-name>
LIG_A_1101_2_02

>  <query-smiles>
BrC#CCNC(=O)[C@@H](NC(=O)C)Cc1ccc(O)cc1

>  <source>
REALspace_2019-12

>  <similarity-descriptor>
1.000;0.968;0.968;0.876;0.876;1.000;1.000;1.000;0.855;0.994;1.000;1.000;0.133

>  <similarity-descriptor-smiles>
c1ccccc1;FC(F)F;FC(F)F;C[NH+]C;C[NH+]C;C=O;NC;NC;C(=O)O;C;C;O;C.C

>  <reaction-name>
s_22

>  <reagent1-name>
12206138

>  <reagent1-smiles>
[R1*]NC(C(=O)OC)Cc1c(O)cccc1

>  <reagent2-name>
9276244

>  <reagent2-smiles>
[R1*]C(=O)C(N(CC(F)(F)F)C)C

$$$$
s_22____10214290____12624298
          04022015103D 1   1.00000     0.00000     0
            
 43 43  0  0  0  0            999 V2000
    4.5183    2.2810   -3.8643 Br  0  0  0  0  0  0  0  0  0  0  0  0
    3.9141    0.9881   -2.5211 C   0  0  0  0  0  0  0  0  0  0  0  0
    3.4515    1.4403   -1.2902 C   0  0  0  0  0  0  0  0  0  0  0  0
    3.0268    0.5098   -0.3469 C   0  0  0  0  0  0  0  0  0  0  0  0
    3.0601   -0.8534   -0.6203 C   0  0  0  0  0  0  0  0  0  0  0  0
    3.5272   -1.2841   -1.8577 C   0  0  0  0  0  0  0  0  0  0  0  0
    3.9564   -0.3707   -2.8148 C   0  0  0  0  0  0  0  0  0  0  0  0
    2.5200    1.0000    1.0000 C   0  0  3  0  0  0  0  0  0  0  0  0
    3.0100    0.1091    2.0617 N   0  0  0  0  0  0  0  0  0  0  0  0
    3.7976    0.6082    3.0654 C   0  0  0  0  0  0  0  0  0  0  0  0
    4.0875    1.7726    3.0779 O   0  0  0  0  0  0  0  0  0  0  0  0
    4.3043   -0.3129    4.1632 C   0  0  0  0  0  0  0  0  0  0  0  0
    1.0000    1.0000    1.0000 C   0  0  0  0  0  0  0  0  0  0  0  0
    0.4000    1.0000   -0.0392 O   0  0  0  0  0  0  0  0  0  0  0  0
    0.3150    1.0000    2.1865 N   0  0  0  0  0  0  0  0  0  0  0  0
   -1.1550    1.0000    2.1865 C   0  0  3  0  0  0  0  0  0  0  0  0
   -1.6617    2.2411    2.9030 C   0  0  0  0  0  0  0  0  0  0  0  0
   -2.0583    3.2127    3.4640 C   0  0  0  0  0  0  0  0  0  0  0  0
   -1.6617   -0.2411    2.9030 C   0  0  0  0  0  0  0  0  0  0  0  0
   -3.1817   -0.2411    2.9030 C   0  0  0  0  0  0  0  0  0  0  0  0
   -1.1550   -1.4821    2.1865 C   0  0  0  0  0  0  0  0  0  0  0  0
   -1.1550   -0.2411    4.3361 C   0  0  0  0  0  0  0  0  0  0  0  0
    3.4245    2.4189   -1.0861 H   0  0  0  0  0  0  0  0  0  0  0  0
    2.7525   -1.5151    0.0635 H   0  0  0  0  0  0  0  0  0  0  0  0
    3.5547   -2.2627   -2.0617 H   0  0  0  0  0  0  0  0  0  0  0  0
    4.2910   -0.6868   -3.7026 H   0  0  0  0  0  0  0  0  0  0  0  0
    2.8533    1.9285    1.1637 H   0  0  0  0  0  0  0  0  0  0  0  0
    2.7684   -0.8612    2.0513 H   0  0  0  0  0  0  0  0  0  0  0  0
    3.9710   -1.2414    3.9995 H   0  0  0  0  0  0  0  0  0  0  0  0
    5.3043   -0.3129    4.1632 H   0  0  0  0  0  0  0  0  0  0  0  0
    3.9710    0.0095    5.0491 H   0  0  0  0  0  0  0  0  0  0  0  0
    0.8150    1.0000    3.0525 H   0  0  0  0  0  0  0  0  0  0  0  0
   -1.4883    1.0000    1.2436 H   0  0  0  0  0  0  0  0  0  0  0  0
   -2.3917    4.0292    3.9354 H   0  0  0  0  0  0  0  0  0  0  0  0
   -3.5150   -1.0576    3.3744 H   0  0  0  0  0  0  0  0  0  0  0  0
   -3.5150    0.5754    3.3744 H   0  0  0  0  0  0  0  0  0  0  0  0
   -3.5150   -0.2411    1.9602 H   0  0  0  0  0  0  0  0  0  0  0  0
   -1.4883   -2.2986    2.6579 H   0  0  0  0  0  0  0  0  0  0  0  0
   -1.4883   -1.4821    1.2436 H   0  0  0  0  0  0  0  0  0  0  0  0
   -0.1550   -1.4821    2.1865 H   0  0  0  0  0  0  0  0  0  0  0  0
   -1.4883   -1.0576    4.8075 H   0  0  0  0  0  0  0  0  0  0  0  0
   -0.1550   -0.2411    4.3361 H   0  0  0  0  0  0  0  0  0  0  0  0
   -1.4883    0.5754    4.8075 H   0  0  0  0  0  0  0  0  0  0  0  0
  1  2  1  0  0  0  0
  2  3  1  0  0  0  0
  3  4  2  0  0  0  0
  4  5  1  0  0  0  0
  5  6  2  0  0  0  0
  6  7  1  0  0  0  0
  7  2  2  0  0  0  0
  4  8  1  0  0  0  0
  8  9  1  0  0  0  0
  9 10  1  0  0  0  0
 10 11  2  0  0  0  0
 10 12  1  0  0  0  0
  8 13  1  0  0  0  0
 13 14  2  0  0  0  0
 13 15  1  0  0  0  0
 15 16  1  0  0  0  0
 16 17  1  0  0  0  0
 17 18  3  0  0  0  0
 16 19  1  0  0  0  0
 19 20  1  0  0  0  0
 19 21  1  0  0  0  0
 19 22  1  0  0  0  0
  3 23  1  0  0  0  0
  5 24  1  0  0  0  0
  6 25  1  0  0  0  0
  7 26  1  0  0  0  0
  8 27  1  0  0  0  0
  9 28  1  0  0  0  0
 12 29  1  0  0  0  0
 12 30  1  0  0  0  0
 12 31  1  0  0  0  0
 15 32  1  0  0  0  0
 16 33  1  0  0  0  0
 18 34  1  0  0  0  0
 20 35  1  0  0  0  0
 20 36  1  0  0  0  0
 20 37  1  0  0  0  0
 21 38  1  0  0  0  0
 21 39  1  0  0  0  0
 21 40  1  0  0  0  0
 22 41  1  0  0  0  0
 22 42  1  0  0  0  0
 22 43  1  0  0  0  0
M  END
>  <result-rank>
17

>  <similarity>
0.950

>  <query-name>
LIG_A_1101_2_02

>  <query-smiles>
BrC#CCNC(=O)[C@@H](NC(=O)C)Cc1ccc(O)cc1

>  <source>
REALspace_2019-12

>  <similarity-descriptor>
0.969;0.911;0.987;0.987;1.000;1.000;1.000;1.000;1.000;1.000;0.969;0.0;0.214

>  <similarity-descriptor-smiles>
Brc1ccccc1;C;C(C)C;C(C)C;N;C=O;C;N;C=O;C;Brc1ccccc1;;C.C.C

>  <reaction-name>
s_22

>  <reagent1-name>
10214290

>  <reagent1-smiles>
[R1*]NC(C#C)C(C)(C)C

>  <reagent2-name>
12624298

>  <reagent2-smiles>
[R1*]C(=O)C(NC(=O)C)c1cc(Br)ccc1

$$$$
s_22____411428____14260948
          04022015103D 1   1.00000     0.00000     0
            
 45 45  0  0  0  0            999 V2000
    0.4492    4.1141   -2.6949 F   0  0  0  0  0  0  0  0  0  0  0  0
   -0.0932    3.4080   -1.7074 C   0  0  0  0  0  0  0  0  0  0  0  0
    0.7114    2.6065   -0.9052 C   0  0  0  0  0  0  0  0  0  0  0  0
    0.1228    1.8772    0.1228 C   0  0  0  0  0  0  0  0  0  0  0  0
   -1.2474    1.9402    0.3557 C   0  0  0  0  0  0  0  0  0  0  0  0
   -2.0417    2.7466   -0.4530 C   0  0  0  0  0  0  0  0  0  0  0  0
   -1.4646    3.4799   -1.4853 C   0  0  0  0  0  0  0  0  0  0  0  0
    1.0000    1.0000    1.0000 C   0  0  3  0  0  0  0  0  0  0  0  0
    1.8487    0.1513    0.1513 N   0  0  0  0  0  0  0  0  0  0  0  0
    1.7598   -1.2129    0.2402 C   0  0  0  0  0  0  0  0  0  0  0  0
    0.9891   -1.7150    1.0109 O   0  0  0  0  0  0  0  0  0  0  0  0
    2.5162   -1.9693   -0.5162 O   0  0  0  0  0  0  0  0  0  0  0  0
    2.4240   -3.3833   -0.4240 C   0  0  0  0  0  0  0  0  0  0  0  0
    1.0090   -3.8221   -0.7642 C   0  0  0  0  0  0  0  0  0  0  0  0
    3.4002   -4.0193   -1.4002 C   0  0  0  0  0  0  0  0  0  0  0  0
    2.7642   -3.8221    0.9910 C   0  0  0  0  0  0  0  0  0  0  0  0
    1.8776    1.8776    1.8776 C   0  0  0  0  0  0  0  0  0  0  0  0
    1.0000    2.7551    2.7551 C   0  0  0  0  0  0  0  0  0  0  0  0
   -0.1949    2.6773    2.6773 O   0  0  0  0  0  0  0  0  0  0  0  0
    1.5733    3.6350    3.6350 N   0  0  0  0  0  0  0  0  0  0  0  0
    0.7245    4.4837    4.4837 C   0  0  0  0  0  0  0  0  0  0  0  0
    1.6021    5.3613    5.3613 C   0  0  0  0  0  0  0  0  0  0  0  0
    0.8342    6.1292    6.1292 F   0  0  0  0  0  0  0  0  0  0  0  0
    2.3700    4.5934    6.1292 F   0  0  0  0  0  0  0  0  0  0  0  0
    2.3700    6.1292    4.5934 F   0  0  0  0  0  0  0  0  0  0  0  0
    1.6973    2.5551   -1.0647 H   0  0  0  0  0  0  0  0  0  0  0  0
   -1.6577    1.4105    1.0980 H   0  0  0  0  0  0  0  0  0  0  0  0
   -3.0273    2.7992   -0.2926 H   0  0  0  0  0  0  0  0  0  0  0  0
   -2.0358    4.0586   -2.0674 H   0  0  0  0  0  0  0  0  0  0  0  0
    0.4226    0.4226    1.5774 H   0  0  0  0  0  0  0  0  0  0  0  0
    2.4909    0.5697   -0.4909 H   0  0  0  0  0  0  0  0  0  0  0  0
    0.9442   -4.8178   -0.6993 H   0  0  0  0  0  0  0  0  0  0  0  0
    0.3668   -3.4036   -0.1220 H   0  0  0  0  0  0  0  0  0  0  0  0
    0.7853   -3.5334   -1.6951 H   0  0  0  0  0  0  0  0  0  0  0  0
    3.3353   -5.0151   -1.3353 H   0  0  0  0  0  0  0  0  0  0  0  0
    3.1764   -3.7306   -2.3311 H   0  0  0  0  0  0  0  0  0  0  0  0
    4.3311   -3.7306   -1.1764 H   0  0  0  0  0  0  0  0  0  0  0  0
    2.6993   -4.8178    1.0558 H   0  0  0  0  0  0  0  0  0  0  0  0
    3.6951   -3.5334    1.2147 H   0  0  0  0  0  0  0  0  0  0  0  0
    2.1220   -3.4036    1.6332 H   0  0  0  0  0  0  0  0  0  0  0  0
    2.4549    1.3002    2.4549 H   0  0  0  0  0  0  0  0  0  0  0  0
    2.4549    2.4549    1.3002 H   0  0  0  0  0  0  0  0  0  0  0  0
    2.5690    3.6999    3.6999 H   0  0  0  0  0  0  0  0  0  0  0  0
    0.1472    3.9064    5.0611 H   0  0  0  0  0  0  0  0  0  0  0  0
    0.1472    5.0611    3.9064 H   0  0  0  0  0  0  0  0  0  0  0  0
  1  2  1  0  0  0  0
  2  3  1  0  0  0  0
  3  4  2  0  0  0  0
  4  5  1  0  0  0  0
  5  6  2  0  0  0  0
  6  7  1  0  0  0  0
  7  2  2  0  0  0  0
  4  8  1  0  0  0  0
  8  9  1  0  0  0  0
  9 10  1  0  0  0  0
 10 11  2  0  0  0  0
 10 12  1  0  0  0  0
 12 13  1  0  0  0  0
 13 14  1  0  0  0  0
 13 15  1  0  0  0  0
 13 16  1  0  0  0  0
  8 17  1  0  0  0  0
 17 18  1  0  0  0  0
 18 19  2  0  0  0  0
 18 20  1  0  0  0  0
 20 21  1  0  0  0  0
 21 22  1  0  0  0  0
 22 23  1  0  0  0  0
 22 24  1  0  0  0  0
 22 25  1  0  0  0  0
  3 26  1  0  0  0  0
  5 27  1  0  0  0  0
  6 28  1  0  0  0  0
  7 29  1  0  0  0  0
  8 30  1  0  0  0  0
  9 31  1  0  0  0  0
 14 32  1  0  0  0  0
 14 33  1  0  0  0  0
 14 34  1  0  0  0  0
 15 35  1  0  0  0  0
 15 36  1  0  0  0  0
 15 37  1  0  0  0  0
 16 38  1  0  0  0  0
 16 39  1  0  0  0  0
 16 40  1  0  0  0  0
 17 41  1  0  0  0  0
 17 42  1  0  0  0  0
 20 43  1  0  0  0  0
 21 44  1  0  0  0  0
 21 45  1  0  0  0  0
M  END
>  <result-rank>
18

>  <similarity>
0.949

>  <query-name>
LIG_A_1101_2_02

>  <query-smiles>
BrC#CCNC(=O)[C@@H](NC(=O)C)Cc1ccc(O)cc1

>  <source>
REALspace_2019-12

>  <similarity-descriptor>
0.983;0.968;0.968;0.999;1.000;1.000;1.000;1.000;0.851;0.971;1.000;0.0;0.143

>  <similarity-descriptor-smiles>
Fc1ccccc1;C(F)(F)F;C(F)(F)F;C;N;C=O;CC;N;C(=O)O;CC;CC;;C.C

>  <reaction-name>
s_22

>  <reagent1-name>
411428

>  <reagent1-smiles>
[R1*]NCC(F)(F)F

>  <reagent2-name>
14260948

>  <reagent2-smiles>
[R1*]C(=O)CC(NC(=O)OC(C)(C)C)c1cc(F)ccc1

$$$$
s_276530____14277870____14278090
          04022015103D 1   1.00000     0.00000     0
            
 34 35  0  0  0  0            999 V2000
    4.1034   -0.9618   -1.3370 F   0  0  0  0  0  0  0  0  0  0  0  0
    4.0657   -0.1656   -0.2724 C   0  0  0  0  0  0  0  0  0  0  0  0
    4.6205    1.0049   -0.5743 F   0  0  0  0  0  0  0  0  0  0  0  0
    4.7375   -0.7299    0.7272 F   0  0  0  0  0  0  0  0  0  0  0  0
    2.6210    0.0516    0.1471 C   0  0  0  0  0  0  0  0  0  0  0  0
    2.5741    0.4599    1.6108 C   0  0  3  0  0  0  0  0  0  0  0  0
    3.1800    1.7948    1.7374 N   0  0  0  0  0  0  0  0  0  0  0  0
    2.7521    2.6833    2.7324 C   0  0  0  0  0  0  0  0  0  0  0  0
    3.2844    3.7799    2.7958 O   0  0  0  0  0  0  0  0  0  0  0  0
    1.6510    2.2870    3.7049 C   0  0  3  0  0  0  0  0  0  0  0  0
    0.7125    1.3291    3.0998 N   0  0  0  0  0  0  0  0  0  0  0  0
    1.1325    0.4462    2.0963 C   0  0  0  0  0  0  0  0  0  0  0  0
    0.3145   -0.3283    1.6263 O   0  0  0  0  0  0  0  0  0  0  0  0
    0.8656    3.5231    4.1133 C   0  0  0  0  0  0  0  0  0  0  0  0
   -0.2063    3.1332    5.1187 C   0  0  0  0  0  0  0  0  0  0  0  0
    0.0787    3.1494    6.4806 C   0  0  0  0  0  0  0  0  0  0  0  0
    1.3018    3.5082    6.9262 O   0  0  0  0  0  0  0  0  0  0  0  0
   -0.9020    2.7924    7.4007 C   0  0  0  0  0  0  0  0  0  0  0  0
   -2.1678    2.4198    6.9588 C   0  0  0  0  0  0  0  0  0  0  0  0
   -2.4525    2.4043    5.5969 C   0  0  0  0  0  0  0  0  0  0  0  0
   -1.4718    2.7615    4.6772 C   0  0  0  0  0  0  0  0  0  0  0  0
    2.1062   -0.7963    0.0209 H   0  0  0  0  0  0  0  0  0  0  0  0
    2.2161    0.7740   -0.4136 H   0  0  0  0  0  0  0  0  0  0  0  0
    3.1066   -0.1931    2.1494 H   0  0  0  0  0  0  0  0  0  0  0  0
    3.9051    2.0708    1.1064 H   0  0  0  0  0  0  0  0  0  0  0  0
    2.0627    1.8754    4.5179 H   0  0  0  0  0  0  0  0  0  0  0  0
   -0.2382    1.3078    3.4091 H   0  0  0  0  0  0  0  0  0  0  0  0
    1.4850    4.1896    4.5280 H   0  0  0  0  0  0  0  0  0  0  0  0
    0.4345    3.9259    3.3059 H   0  0  0  0  0  0  0  0  0  0  0  0
    1.4940    3.5158    7.9076 H   0  0  0  0  0  0  0  0  0  0  0  0
   -0.6973    2.8036    8.3794 H   0  0  0  0  0  0  0  0  0  0  0  0
   -2.8728    2.1631    7.6199 H   0  0  0  0  0  0  0  0  0  0  0  0
   -3.3620    2.1364    5.2793 H   0  0  0  0  0  0  0  0  0  0  0  0
   -1.6768    2.7512    3.6985 H   0  0  0  0  0  0  0  0  0  0  0  0
  1  2  1  0  0  0  0
  2  3  1  0  0  0  0
  2  4  1  0  0  0  0
  2  5  1  0  0  0  0
  5  6  1  0  0  0  0
  6  7  1  0  0  0  0
  7  8  1  0  0  0  0
  8  9  2  0  0  0  0
  8 10  1  0  0  0  0
 10 11  1  0  0  0  0
 11 12  1  0  0  0  0
 12  6  1  0  0  0  0
 12 13  2  0  0  0  0
 10 14  1  0  0  0  0
 14 15  1  0  0  0  0
 15 16  1  0  0  0  0
 16 17  1  0  0  0  0
 16 18  2  0  0  0  0
 18 19  1  0  0  0  0
 19 20  2  0  0  0  0
 20 21  1  0  0  0  0
 21 15  2  0  0  0  0
  5 22  1  0  0  0  0
  5 23  1  0  0  0  0
  6 24  1  0  0  0  0
  7 25  1  0  0  0  0
 10 26  1  0  0  0  0
 11 27  1  0  0  0  0
 14 28  1  0  0  0  0
 14 29  1  0  0  0  0
 17 30  1  0  0  0  0
 18 31  1  0  0  0  0
 19 32  1  0  0  0  0
 20 33  1  0  0  0  0
 21 34  1  0  0  0  0
M  END
>  <result-rank>
19

>  <similarity>
0.949

>  <query-name>
LIG_A_1101_2_02

>  <query-smiles>
BrC#CCNC(=O)[C@@H](NC(=O)C)Cc1ccc(O)cc1

>  <source>
REALspace_2019-12

>  <similarity-descriptor>
1.000;0.968;0.968;0.995;0.883;0.883;0.883;0.883;0.883;0.883;1.000;1.000;0.0

>  <similarity-descriptor-smiles>
c1ccccc1;FC(F)F;FC(F)F;C;C1C(NCC(N1)=O)=O;C1C(NCC(N1)=O)=O;C1C(NCC(N1)=O)=O;C1C(NCC(N1)=O)=O;C1C(NCC(N1)=O)=O;C1C(NCC(N1)=O)=O;C;O;

>  <reaction-name>
s_276530

>  <reagent1-name>
14277870

>  <reagent1-smiles>
[R1*]NC(C([R2*])=O)Cc1c(O)cccc1

>  <reagent2-name>
14278090

>  <reagent2-smiles>
[R2*]NC(C([R1*])=O)CC(F)(F)F

$$$$
s_22____14174274____12525624
          04022015103D 1   1.00000     0.00000     0
            
 38 38  0  0  0  0            999 V2000
    1.6177   -0.2226   -3.7135 F   0  0  0  0  0  0  0  0  0  0  0  0
    1.3390    0.9570   -3.1668 C   0  0  0  0  0  0  0  0  0  0  0  0
    1.8516    2.1168   -3.7402 C   0  0  0  0  0  0  0  0  0  0  0  0
    2.6268    2.0394   -4.8434 O   0  0  0  0  0  0  0  0  0  0  0  0
    1.5730    3.3622   -3.1868 C   0  0  0  0  0  0  0  0  0  0  0  0
    0.7741    3.4360   -2.0505 C   0  0  0  0  0  0  0  0  0  0  0  0
    0.2648    2.2731   -1.4818 C   0  0  0  0  0  0  0  0  0  0  0  0
    0.5397    1.0255   -2.0309 C   0  0  0  0  0  0  0  0  0  0  0  0
   -0.6089    2.3536   -0.2411 C   0  0  0  0  0  0  0  0  0  0  0  0
    0.2650    2.2731    1.0000 C   0  0  3  0  0  0  0  0  0  0  0  0
    1.0000    1.0000    1.0000 N   0  0  0  0  0  0  0  0  0  0  0  0
    2.3700    1.0000    1.0000 C   0  0  0  0  0  0  0  0  0  0  0  0
    2.9700    2.0392    1.0000 O   0  0  0  0  0  0  0  0  0  0  0  0
    3.1300   -0.3164    1.0000 C   0  0  0  0  0  0  0  0  0  0  0  0
    4.6244   -0.0386    1.0000 C   0  0  0  0  0  0  0  0  0  0  0  0
    4.9457    0.6588   -0.0859 F   0  0  0  0  0  0  0  0  0  0  0  0
    4.9457    0.6588    2.0859 F   0  0  0  0  0  0  0  0  0  0  0  0
    5.3844   -1.3550    1.0000 C   0  0  0  0  0  0  0  0  0  0  0  0
    6.6920   -1.1119    1.0000 F   0  0  0  0  0  0  0  0  0  0  0  0
    5.0631   -2.0524    2.0859 F   0  0  0  0  0  0  0  0  0  0  0  0
    5.0631   -2.0524   -0.0859 F   0  0  0  0  0  0  0  0  0  0  0  0
   -0.6089    2.3536    2.2411 C   0  0  0  0  0  0  0  0  0  0  0  0
   -1.7152    2.8125    2.1672 O   0  0  0  0  0  0  0  0  0  0  0  0
   -0.1543    1.9220    3.3914 O   0  0  0  0  0  0  0  0  0  0  0  0
   -0.9706    1.9972    4.5508 C   0  0  0  0  0  0  0  0  0  0  0  0
    2.9950    2.8729   -5.2552 H   0  0  0  0  0  0  0  0  0  0  0  0
    1.9425    4.1942   -3.6008 H   0  0  0  0  0  0  0  0  0  0  0  0
    0.5658    4.3249   -1.6424 H   0  0  0  0  0  0  0  0  0  0  0  0
    0.1699    0.1937   -1.6170 H   0  0  0  0  0  0  0  0  0  0  0  0
   -1.2587    1.5935   -0.2411 H   0  0  0  0  0  0  0  0  0  0  0  0
   -1.1089    3.2196   -0.2411 H   0  0  0  0  0  0  0  0  0  0  0  0
    0.9148    3.0331    1.0000 H   0  0  0  0  0  0  0  0  0  0  0  0
    0.5000    0.1340    1.0000 H   0  0  0  0  0  0  0  0  0  0  0  0
    2.8884   -0.8407    0.1835 H   0  0  0  0  0  0  0  0  0  0  0  0
    2.8884   -0.8407    1.8165 H   0  0  0  0  0  0  0  0  0  0  0  0
   -0.4715    1.6274    5.3345 H   0  0  0  0  0  0  0  0  0  0  0  0
   -1.2102    2.9517    4.7284 H   0  0  0  0  0  0  0  0  0  0  0  0
   -1.8051    1.4655    4.4060 H   0  0  0  0  0  0  0  0  0  0  0  0
  1  2  1  0  0  0  0
  2  3  1  0  0  0  0
  3  4  1  0  0  0  0
  3  5  2  0  0  0  0
  5  6  1  0  0  0  0
  6  7  2  0  0  0  0
  7  8  1  0  0  0  0
  8  2  2  0  0  0  0
  7  9  1  0  0  0  0
  9 10  1  0  0  0  0
 10 11  1  0  0  0  0
 11 12  1  0  0  0  0
 12 13  2  0  0  0  0
 12 14  1  0  0  0  0
 14 15  1  0  0  0  0
 15 16  1  0  0  0  0
 15 17  1  0  0  0  0
 15 18  1  0  0  0  0
 18 19  1  0  0  0  0
 18 20  1  0  0  0  0
 18 21  1  0  0  0  0
 10 22  1  0  0  0  0
 22 23  2  0  0  0  0
 22 24  1  0  0  0  0
 24 25  1  0  0  0  0
  4 26  1  0  0  0  0
  5 27  1  0  0  0  0
  6 28  1  0  0  0  0
  8 29  1  0  0  0  0
  9 30  1  0  0  0  0
  9 31  1  0  0  0  0
 10 32  1  0  0  0  0
 11 33  1  0  0  0  0
 14 34  1  0  0  0  0
 14 35  1  0  0  0  0
 25 36  1  0  0  0  0
 25 37  1  0  0  0  0
 25 38  1  0  0  0  0
M  END
>  <result-rank>
20

>  <similarity>
0.948

>  <query-name>
LIG_A_1101_2_02

>  <query-smiles>
BrC#CCNC(=O)[C@@H](NC(=O)C)Cc1ccc(O)cc1

>  <source>
REALspace_2019-12

>  <similarity-descriptor>
0.965;0.990;0.945;0.945;0.852;0.852;1.000;1.000;0.855;0.994;1.000;1.000;0.0

>  <similarity-descriptor-smiles>
Fc1ccccc1;C(F)(F)F;CC(F)F;CC(F)F;C=O;C=O;CN;CN;C(=O)O;C;C;O;

>  <reaction-name>
s_22

>  <reagent1-name>
14174274

>  <reagent1-smiles>
[R1*]NC(C(=O)OC)Cc1cc(F)c(O)cc1

>  <reagent2-name>
12525624

>  <reagent2-smiles>
[R1*]C(=O)CC(F)(F)C(F)(F)F

$$$$
s_22____9195934____16717358
          04022015103D 1   1.00000     0.00000     0
            
 49 49  0  0  0  0            999 V2000
    1.3895    5.2619   -3.1503 F   0  0  0  0  0  0  0  0  0  0  0  0
    1.6455    4.6312   -2.0077 C   0  0  0  0  0  0  0  0  0  0  0  0
    0.8410    5.0949   -1.0555 F   0  0  0  0  0  0  0  0  0  0  0  0
    2.9118    4.8411   -1.6594 F   0  0  0  0  0  0  0  0  0  0  0  0
    1.4102    3.1404   -2.1881 C   0  0  3  0  0  0  0  0  0  0  0  0
    1.6931    2.4433   -0.9252 N   0  0  0  0  0  0  0  0  0  0  0  0
    0.7075    1.7208   -0.3059 C   0  0  0  0  0  0  0  0  0  0  0  0
   -0.3868    1.6571   -0.7943 O   0  0  0  0  0  0  0  0  0  0  0  0
    1.0000    1.0000    1.0000 C   0  0  3  0  0  0  0  0  0  0  0  0
    1.8487    1.8487    1.8487 N   0  0  0  0  0  0  0  0  0  0  0  0
    3.0831    1.4052    2.2442 C   0  0  0  0  0  0  0  0  0  0  0  0
    3.4716    0.3240    1.8978 O   0  0  0  0  0  0  0  0  0  0  0  0
    3.9607    2.2828    3.1218 C   0  0  0  0  0  0  0  0  0  0  0  0
    5.2236    1.5857    3.4047 N   0  0  0  0  0  0  0  0  0  0  0  0
    6.2255    1.5772    2.4703 C   0  0  0  0  0  0  0  0  0  0  0  0
    6.0722    2.1388    1.4210 O   0  0  0  0  0  0  0  0  0  0  0  0
    7.5314    0.8564    2.7629 C   0  0  0  0  0  0  0  0  0  0  0  0
   -0.3059    0.7075    1.7208 C   0  0  0  0  0  0  0  0  0  0  0  0
   -0.0133   -0.0134    3.0267 C   0  0  0  0  0  0  0  0  0  0  0  0
    0.1949    0.7274    4.1855 C   0  0  0  0  0  0  0  0  0  0  0  0
    0.4621    0.0721    5.3829 C   0  0  0  0  0  0  0  0  0  0  0  0
    0.5173   -1.3180    5.4060 C   0  0  0  0  0  0  0  0  0  0  0  0
    0.7767   -1.9580    6.5658 O   0  0  0  0  0  0  0  0  0  0  0  0
    0.3102   -2.0634    4.2499 C   0  0  0  0  0  0  0  0  0  0  0  0
    0.0429   -1.4030    3.0554 C   0  0  0  0  0  0  0  0  0  0  0  0
    2.3295    2.6104   -3.2763 C   0  0  0  0  0  0  0  0  0  0  0  0
    2.0942    1.1196   -3.4568 C   0  0  0  0  0  0  0  0  0  0  0  0
    0.4581    2.9825   -2.4500 H   0  0  0  0  0  0  0  0  0  0  0  0
    2.6049    2.4964   -0.5181 H   0  0  0  0  0  0  0  0  0  0  0  0
    1.4742    0.1409    0.8075 H   0  0  0  0  0  0  0  0  0  0  0  0
    1.5250    2.7498    2.1374 H   0  0  0  0  0  0  0  0  0  0  0  0
    4.1532    3.1419    2.6475 H   0  0  0  0  0  0  0  0  0  0  0  0
    3.4865    2.4753    3.9809 H   0  0  0  0  0  0  0  0  0  0  0  0
    5.3514    1.1177    4.2791 H   0  0  0  0  0  0  0  0  0  0  0  0
    7.4892    0.4469    3.6742 H   0  0  0  0  0  0  0  0  0  0  0  0
    7.6760    0.1389    2.0815 H   0  0  0  0  0  0  0  0  0  0  0  0
    8.2881    1.5091    2.7253 H   0  0  0  0  0  0  0  0  0  0  0  0
   -0.7801    1.5666    1.9133 H   0  0  0  0  0  0  0  0  0  0  0  0
   -0.8832    0.1301    1.1435 H   0  0  0  0  0  0  0  0  0  0  0  0
    0.1526    1.7261    4.1579 H   0  0  0  0  0  0  0  0  0  0  0  0
    0.6134    0.5962    6.2210 H   0  0  0  0  0  0  0  0  0  0  0  0
    0.8174   -2.9569    6.5874 H   0  0  0  0  0  0  0  0  0  0  0  0
    0.3529   -3.0622    4.2773 H   0  0  0  0  0  0  0  0  0  0  0  0
   -0.1088   -1.9271    2.2174 H   0  0  0  0  0  0  0  0  0  0  0  0
    3.2816    2.7682   -3.0145 H   0  0  0  0  0  0  0  0  0  0  0  0
    2.1371    3.0846   -4.1355 H   0  0  0  0  0  0  0  0  0  0  0  0
    2.6990    0.7709   -4.1727 H   0  0  0  0  0  0  0  0  0  0  0  0
    2.2867    0.6453   -2.5977 H   0  0  0  0  0  0  0  0  0  0  0  0
    1.1421    0.9617   -3.7186 H   0  0  0  0  0  0  0  0  0  0  0  0
  1  2  1  0  0  0  0
  2  3  1  0  0  0  0
  2  4  1  0  0  0  0
  2  5  1  0  0  0  0
  5  6  1  0  0  0  0
  6  7  1  0  0  0  0
  7  8  2  0  0  0  0
  7  9  1  0  0  0  0
  9 10  1  0  0  0  0
 10 11  1  0  0  0  0
 11 12  2  0  0  0  0
 11 13  1  0  0  0  0
 13 14  1  0  0  0  0
 14 15  1  0  0  0  0
 15 16  2  0  0  0  0
 15 17  1  0  0  0  0
  9 18  1  0  0  0  0
 18 19  1  0  0  0  0
 19 20  1  0  0  0  0
 20 21  2  0  0  0  0
 21 22  1  0  0  0  0
 22 23  1  0  0  0  0
 22 24  2  0  0  0  0
 24 25  1  0  0  0  0
 25 19  2  0  0  0  0
  5 26  1  0  0  0  0
 26 27  1  0  0  0  0
  5 28  1  0  0  0  0
  6 29  1  0  0  0  0
  9 30  1  0  0  0  0
 10 31  1  0  0  0  0
 13 32  1  0  0  0  0
 13 33  1  0  0  0  0
 14 34  1  0  0  0  0
 17 35  1  0  0  0  0
 17 36  1  0  0  0  0
 17 37  1  0  0  0  0
 18 38  1  0  0  0  0
 18 39  1  0  0  0  0
 20 40  1  0  0  0  0
 21 41  1  0  0  0  0
 23 42  1  0  0  0  0
 24 43  1  0  0  0  0
 25 44  1  0  0  0  0
 26 45  1  0  0  0  0
 26 46  1  0  0  0  0
 27 47  1  0  0  0  0
 27 48  1  0  0  0  0
 27 49  1  0  0  0  0
M  END
>  <result-rank>
21

>  <similarity>
0.948

>  <query-name>
LIG_A_1101_2_02

>  <query-smiles>
BrC#CCNC(=O)[C@@H](NC(=O)C)Cc1ccc(O)cc1

>  <source>
REALspace_2019-12

>  <similarity-descriptor>
1.000;0.968;0.968;0.934;1.000;1.000;1.000;1.000;1.000;0.955;1.000;1.000;0.313

>  <similarity-descriptor-smiles>
c1ccccc1;FC(F)F;FC(F)F;C;N;C=O;C;N;C=O;C;C;O;N.C=O.C.C.C

>  <reaction-name>
s_22

>  <reagent1-name>
9195934

>  <reagent1-smiles>
[R1*]NC(C(F)(F)F)CC

>  <reagent2-name>
16717358

>  <reagent2-smiles>
[R1*]C(=O)C(NC(=O)CNC(=O)C)Cc1ccc(O)cc1

$$$$
s_2708____9434212____10854424
          04022015103D 1   1.00000     0.00000     0
            
 33 33  0  0  0  0            999 V2000
   -3.2272    2.5839    5.9486 Cl  0  0  0  0  0  0  0  0  0  0  0  0
   -2.2015    2.4940    4.4969 C   0  0  0  0  0  0  0  0  0  0  0  0
   -1.5251    3.6263    4.0567 C   0  0  0  0  0  0  0  0  0  0  0  0
   -0.7228    3.5606    2.9220 C   0  0  0  0  0  0  0  0  0  0  0  0
   -0.6085    2.3535    2.2406 C   0  0  0  0  0  0  0  0  0  0  0  0
   -1.2849    1.2211    2.6802 C   0  0  0  0  0  0  0  0  0  0  0  0
   -2.0874    1.2868    3.8151 C   0  0  0  0  0  0  0  0  0  0  0  0
    0.2650    2.2731    1.0000 C   0  0  3  0  0  0  0  0  0  0  0  0
    1.0000    1.0000    1.0000 N   0  0  0  0  0  0  0  0  0  0  0  0
    2.3700    1.0000    1.0000 C   0  0  0  0  0  0  0  0  0  0  0  0
    2.9700    2.0392    1.0000 O   0  0  0  0  0  0  0  0  0  0  0  0
    3.0550   -0.1865    1.0000 N   0  0  0  0  0  0  0  0  0  0  0  0
    4.5250   -0.1865    1.0000 C   0  0  0  0  0  0  0  0  0  0  0  0
    5.0317    0.0624    2.4113 C   0  0  0  0  0  0  0  0  0  0  0  0
    5.4283    0.2572    3.5162 C   0  0  0  0  0  0  0  0  0  0  0  0
   -0.6089    2.3536   -0.2411 C   0  0  0  0  0  0  0  0  0  0  0  0
   -1.3189    3.5833   -0.2411 O   0  0  0  0  0  0  0  0  0  0  0  0
   -2.1352    3.6586   -1.4005 C   0  0  0  0  0  0  0  0  0  0  0  0
   -1.6153    4.4881    4.5559 H   0  0  0  0  0  0  0  0  0  0  0  0
   -0.2342    4.3715    2.6002 H   0  0  0  0  0  0  0  0  0  0  0  0
   -1.1947    0.3594    2.1808 H   0  0  0  0  0  0  0  0  0  0  0  0
   -2.5762    0.4759    4.1368 H   0  0  0  0  0  0  0  0  0  0  0  0
    0.9148    3.0331    1.0000 H   0  0  0  0  0  0  0  0  0  0  0  0
    0.5000    0.1340    1.0000 H   0  0  0  0  0  0  0  0  0  0  0  0
    2.5550   -1.0525    1.0000 H   0  0  0  0  0  0  0  0  0  0  0  0
    4.8583    0.5358    0.3940 H   0  0  0  0  0  0  0  0  0  0  0  0
    4.8583   -1.0724    0.6775 H   0  0  0  0  0  0  0  0  0  0  0  0
    5.7617    0.4209    4.4447 H   0  0  0  0  0  0  0  0  0  0  0  0
   -0.0340    2.3006   -1.0576 H   0  0  0  0  0  0  0  0  0  0  0  0
   -1.2587    1.5935   -0.2411 H   0  0  0  0  0  0  0  0  0  0  0  0
   -2.6352    4.5246   -1.4005 H   0  0  0  0  0  0  0  0  0  0  0  0
   -1.5603    3.6056   -2.2170 H   0  0  0  0  0  0  0  0  0  0  0  0
   -2.7851    2.8985   -1.4005 H   0  0  0  0  0  0  0  0  0  0  0  0
  1  2  1  0  0  0  0
  2  3  1  0  0  0  0
  3  4  2  0  0  0  0
  4  5  1  0  0  0  0
  5  6  2  0  0  0  0
  6  7  1  0  0  0  0
  7  2  2  0  0  0  0
  5  8  1  0  0  0  0
  8  9  1  0  0  0  0
  9 10  1  0  0  0  0
 10 11  2  0  0  0  0
 10 12  1  0  0  0  0
 12 13  1  0  0  0  0
 13 14  1  0  0  0  0
 14 15  3  0  0  0  0
  8 16  1  0  0  0  0
 16 17  1  0  0  0  0
 17 18  1  0  0  0  0
  3 19  1  0  0  0  0
  4 20  1  0  0  0  0
  6 21  1  0  0  0  0
  7 22  1  0  0  0  0
  8 23  1  0  0  0  0
  9 24  1  0  0  0  0
 12 25  1  0  0  0  0
 13 26  1  0  0  0  0
 13 27  1  0  0  0  0
 15 28  1  0  0  0  0
 16 29  1  0  0  0  0
 16 30  1  0  0  0  0
 18 31  1  0  0  0  0
 18 32  1  0  0  0  0
 18 33  1  0  0  0  0
M  END
>  <result-rank>
22

>  <similarity>
0.947

>  <query-name>
LIG_A_1101_2_02

>  <query-smiles>
BrC#CCNC(=O)[C@@H](NC(=O)C)Cc1ccc(O)cc1

>  <source>
REALspace_2019-12

>  <similarity-descriptor>
0.969;0.911;1.000;1.000;1.000;0.995;1.000;1.000;0.770;0.994;0.969;0.0;0.0

>  <similarity-descriptor-smiles>
Clc1ccccc1;C;C;C;N;C=O;CN;CN;CO;C;Clc1ccccc1;;

>  <reaction-name>
s_2708

>  <reagent1-name>
9434212

>  <reagent1-smiles>
[R1*]C(=O)NC(c1ccc(Cl)cc1)COC

>  <reagent2-name>
10854424

>  <reagent2-smiles>
[R1*]NCC#C

$$$$
s_487a____11354914____1735730
          04022015103D 1   1.00000     0.00000     0
            
 40 40  0  0  0  0            999 V2000
    1.9588   -5.7469    2.1269 F   0  0  0  0  0  0  0  0  0  0  0  0
    2.6743   -4.8985    1.3945 C   0  0  0  0  0  0  0  0  0  0  0  0
    3.8889   -5.3128    0.8562 C   0  0  0  0  0  0  0  0  0  0  0  0
    4.3338   -6.5682    1.0799 O   0  0  0  0  0  0  0  0  0  0  0  0
    4.6545   -4.4436    0.0860 C   0  0  0  0  0  0  0  0  0  0  0  0
    4.1914   -3.1517   -0.1410 C   0  0  0  0  0  0  0  0  0  0  0  0
    2.9765   -2.7434    0.3998 C   0  0  0  0  0  0  0  0  0  0  0  0
    2.2070   -3.6081    1.1702 C   0  0  0  0  0  0  0  0  0  0  0  0
    2.4700   -1.3325    0.1511 C   0  0  0  0  0  0  0  0  0  0  0  0
    2.9767   -0.4113    1.2488 C   0  0  3  0  0  0  0  0  0  0  0  0
    4.4967   -0.4113    1.2488 C   0  0  0  0  0  0  0  0  0  0  0  0
    5.0967   -0.7667    2.2254 O   0  0  0  0  0  0  0  0  0  0  0  0
    5.1517   -0.0233    0.1828 O   0  0  0  0  0  0  0  0  0  0  0  0
    6.5717   -0.0233    0.1828 C   0  0  0  0  0  0  0  0  0  0  0  0
    2.4700    1.0000    1.0000 C   0  0  0  0  0  0  0  0  0  0  0  0
    1.0000    1.0000    1.0000 N   0  0  0  0  0  0  0  0  0  0  0  0
    0.3150    1.0000    2.1865 C   0  0  0  0  0  0  0  0  0  0  0  0
    0.9150    1.0000    3.2257 O   0  0  0  0  0  0  0  0  0  0  0  0
   -1.0550    1.0000    2.1865 N   0  0  0  0  0  0  0  0  0  0  0  0
   -1.7900    1.0000    3.4595 C   0  0  0  0  0  0  0  0  0  0  0  0
   -3.2844    1.0000    3.1818 C   0  0  0  0  0  0  0  0  0  0  0  0
   -3.6057    2.0859    2.4843 F   0  0  0  0  0  0  0  0  0  0  0  0
   -3.6057   -0.0859    2.4843 F   0  0  0  0  0  0  0  0  0  0  0  0
   -3.9494    1.0000    4.3336 F   0  0  0  0  0  0  0  0  0  0  0  0
    5.2067   -6.8657    0.6930 H   0  0  0  0  0  0  0  0  0  0  0  0
    5.5270   -4.7437   -0.2997 H   0  0  0  0  0  0  0  0  0  0  0  0
    4.7317   -2.5165   -0.6930 H   0  0  0  0  0  0  0  0  0  0  0  0
    1.3344   -3.3079    1.5555 H   0  0  0  0  0  0  0  0  0  0  0  0
    1.4700   -1.3325    0.1511 H   0  0  0  0  0  0  0  0  0  0  0  0
    2.8033   -1.0100   -0.7349 H   0  0  0  0  0  0  0  0  0  0  0  0
    2.6433   -0.7338    2.1348 H   0  0  0  0  0  0  0  0  0  0  0  0
    6.9050    0.2992   -0.7032 H   0  0  0  0  0  0  0  0  0  0  0  0
    6.9050    0.5827    0.9050 H   0  0  0  0  0  0  0  0  0  0  0  0
    6.9050   -0.9518    0.3465 H   0  0  0  0  0  0  0  0  0  0  0  0
    2.8033    1.6060    1.7222 H   0  0  0  0  0  0  0  0  0  0  0  0
    2.8033    1.3225    0.1140 H   0  0  0  0  0  0  0  0  0  0  0  0
    0.5000    1.0000    0.1340 H   0  0  0  0  0  0  0  0  0  0  0  0
   -1.5550    1.0000    1.3204 H   0  0  0  0  0  0  0  0  0  0  0  0
   -1.5484    1.8165    3.9839 H   0  0  0  0  0  0  0  0  0  0  0  0
   -1.5484    0.1835    3.9839 H   0  0  0  0  0  0  0  0  0  0  0  0
  1  2  1  0  0  0  0
  2  3  1  0  0  0  0
  3  4  1  0  0  0  0
  3  5  2  0  0  0  0
  5  6  1  0  0  0  0
  6  7  2  0  0  0  0
  7  8  1  0  0  0  0
  8  2  2  0  0  0  0
  7  9  1  0  0  0  0
  9 10  1  0  0  0  0
 10 11  1  0  0  0  0
 11 12  2  0  0  0  0
 11 13  1  0  0  0  0
 13 14  1  0  0  0  0
 10 15  1  0  0  0  0
 15 16  1  0  0  0  0
 16 17  1  0  0  0  0
 17 18  2  0  0  0  0
 17 19  1  0  0  0  0
 19 20  1  0  0  0  0
 20 21  1  0  0  0  0
 21 22  1  0  0  0  0
 21 23  1  0  0  0  0
 21 24  1  0  0  0  0
  4 25  1  0  0  0  0
  5 26  1  0  0  0  0
  6 27  1  0  0  0  0
  8 28  1  0  0  0  0
  9 29  1  0  0  0  0
  9 30  1  0  0  0  0
 10 31  1  0  0  0  0
 14 32  1  0  0  0  0
 14 33  1  0  0  0  0
 14 34  1  0  0  0  0
 15 35  1  0  0  0  0
 15 36  1  0  0  0  0
 16 37  1  0  0  0  0
 19 38  1  0  0  0  0
 20 39  1  0  0  0  0
 20 40  1  0  0  0  0
M  END
>  <result-rank>
23

>  <similarity>
0.947

>  <query-name>
LIG_A_1101_2_02

>  <query-smiles>
BrC#CCNC(=O)[C@@H](NC(=O)C)Cc1ccc(O)cc1

>  <source>
REALspace_2019-12

>  <similarity-descriptor>
0.965;0.968;0.968;0.999;1.000;0.995;0.824;0.824;0.855;0.994;1.000;1.000;0.0

>  <similarity-descriptor-smiles>
Fc1ccccc1;C(F)(F)F;C(F)(F)F;C;N;C=O;CCN;CCN;C(=O)O;C;C;O;

>  <reaction-name>
s_487a

>  <reagent1-name>
11354914

>  <reagent1-smiles>
[R1*]NCC(C(=O)OC)Cc1cc(F)c(O)cc1

>  <reagent2-name>
1735730

>  <reagent2-smiles>
[R1*]C(=O)NCC(F)(F)F

$$$$
s_22____411428____518218
          04022015103D 1   1.00000     0.00000     0
            
 34 34  0  0  0  0            999 V2000
   -2.9155    6.6801    0.8241 Br  0  0  0  0  0  0  0  0  0  0  0  0
   -1.7801    5.1221    0.4707 C   0  0  0  0  0  0  0  0  0  0  0  0
   -2.2120    3.8548    0.8485 C   0  0  0  0  0  0  0  0  0  0  0  0
   -1.4019    2.7529    0.5950 C   0  0  0  0  0  0  0  0  0  0  0  0
   -0.1725    2.9293   -0.0314 C   0  0  0  0  0  0  0  0  0  0  0  0
    0.2533    4.1996   -0.4066 C   0  0  0  0  0  0  0  0  0  0  0  0
   -0.5515    5.3063   -0.1562 C   0  0  0  0  0  0  0  0  0  0  0  0
    0.7075    1.7208   -0.3059 C   0  0  3  0  0  0  0  0  0  0  0  0
    0.0129    0.8075   -1.2248 N   0  0  0  0  0  0  0  0  0  0  0  0
    0.5721    0.4993   -2.4369 C   0  0  0  0  0  0  0  0  0  0  0  0
    1.6288    0.9750   -2.7485 O   0  0  0  0  0  0  0  0  0  0  0  0
   -0.0752   -0.3518   -3.2933 N   0  0  0  0  0  0  0  0  0  0  0  0
    1.0000    1.0000    1.0000 C   0  0  0  0  0  0  0  0  0  0  0  0
    1.8776    1.8776    1.8776 C   0  0  0  0  0  0  0  0  0  0  0  0
    1.9688    3.0524    1.6507 O   0  0  0  0  0  0  0  0  0  0  0  0
    2.5644    1.3273    2.9275 N   0  0  0  0  0  0  0  0  0  0  0  0
    3.4131    2.1760    3.7762 C   0  0  0  0  0  0  0  0  0  0  0  0
    4.0574    1.3262    4.8593 C   0  0  0  0  0  0  0  0  0  0  0  0
    3.1098    0.7623    5.6029 F   0  0  0  0  0  0  0  0  0  0  0  0
    4.8011    0.3785    4.2954 F   0  0  0  0  0  0  0  0  0  0  0  0
    4.8253    2.0940    5.6271 F   0  0  0  0  0  0  0  0  0  0  0  0
   -3.0973    3.7371    1.2984 H   0  0  0  0  0  0  0  0  0  0  0  0
   -1.7022    1.8372    0.8621 H   0  0  0  0  0  0  0  0  0  0  0  0
    1.1386    4.3172   -0.8567 H   0  0  0  0  0  0  0  0  0  0  0  0
   -0.2511    6.2220   -0.4231 H   0  0  0  0  0  0  0  0  0  0  0  0
    1.5665    2.0212   -0.7205 H   0  0  0  0  0  0  0  0  0  0  0  0
   -0.8677    0.4111   -0.9651 H   0  0  0  0  0  0  0  0  0  0  0  0
   -0.9558   -0.7482   -3.0336 H   0  0  0  0  0  0  0  0  0  0  0  0
    0.3329   -0.5768   -4.1781 H   0  0  0  0  0  0  0  0  0  0  0  0
    0.1409    0.8075    1.4742 H   0  0  0  0  0  0  0  0  0  0  0  0
    1.4742    0.1409    0.8075 H   0  0  0  0  0  0  0  0  0  0  0  0
    2.4883    0.3483    3.1166 H   0  0  0  0  0  0  0  0  0  0  0  0
    2.8540    2.8885    4.2002 H   0  0  0  0  0  0  0  0  0  0  0  0
    4.1256    2.5999    3.2171 H   0  0  0  0  0  0  0  0  0  0  0  0
  1  2  1  0  0  0  0
  2  3  1  0  0  0  0
  3  4  2  0  0  0  0
  4  5  1  0  0  0  0
  5  6  2  0  0  0  0
  6  7  1  0  0  0  0
  7  2  2  0  0  0  0
  5  8  1  0  0  0  0
  8  9  1  0  0  0  0
  9 10  1  0  0  0  0
 10 11  2  0  0  0  0
 10 12  1  0  0  0  0
  8 13  1  0  0  0  0
 13 14  1  0  0  0  0
 14 15  2  0  0  0  0
 14 16  1  0  0  0  0
 16 17  1  0  0  0  0
 17 18  1  0  0  0  0
 18 19  1  0  0  0  0
 18 20  1  0  0  0  0
 18 21  1  0  0  0  0
  3 22  1  0  0  0  0
  4 23  1  0  0  0  0
  6 24  1  0  0  0  0
  7 25  1  0  0  0  0
  8 26  1  0  0  0  0
  9 27  1  0  0  0  0
 12 28  1  0  0  0  0
 12 29  1  0  0  0  0
 13 30  1  0  0  0  0
 13 31  1  0  0  0  0
 16 32  1  0  0  0  0
 17 33  1  0  0  0  0
 17 34  1  0  0  0  0
M  END
>  <result-rank>
24

>  <similarity>
0.947

>  <query-name>
LIG_A_1101_2_02

>  <query-smiles>
BrC#CCNC(=O)[C@@H](NC(=O)C)Cc1ccc(O)cc1

>  <source>
REALspace_2019-12

>  <similarity-descriptor>
0.962;0.968;0.968;0.999;1.000;1.000;1.000;1.000;0.840;0.840;1.000;0.0;0.100

>  <similarity-descriptor-smiles>
Brc1ccccc1;C(F)(F)F;C(F)(F)F;C;N;C=O;CC;N;C=O;C=O;CC;;N

>  <reaction-name>
s_22

>  <reagent1-name>
411428

>  <reagent1-smiles>
[R1*]NCC(F)(F)F

>  <reagent2-name>
518218

>  <reagent2-smiles>
[R1*]C(=O)CC(NC(=O)N)c1ccc(Br)cc1

$$$$
s_240690a____16762142____7408864
          04022015103D 1   1.00000     0.00000     0
            
 37 37  0  0  0  0            999 V2000
    2.2958   -3.1092   -4.3208 Cl  0  0  0  0  0  0  0  0  0  0  0  0
    2.5117   -1.7775   -3.1598 C   0  0  0  0  0  0  0  0  0  0  0  0
    3.2657   -1.9786   -2.0090 C   0  0  0  0  0  0  0  0  0  0  0  0
    3.4364   -0.9406   -1.0986 C   0  0  0  0  0  0  0  0  0  0  0  0
    2.8459    0.2921   -1.3561 C   0  0  0  0  0  0  0  0  0  0  0  0
    2.0917    0.4935   -2.5066 C   0  0  0  0  0  0  0  0  0  0  0  0
    1.9209   -0.5447   -3.4172 C   0  0  0  0  0  0  0  0  0  0  0  0
    3.0267    1.4309   -0.3667 C   0  0  3  0  0  0  0  0  0  0  0  0
    4.4521    1.7778   -0.2739 N   0  0  0  0  0  0  0  0  0  0  0  0
    4.8720    3.0415   -0.5957 C   0  0  0  0  0  0  0  0  0  0  0  0
    4.0761    3.8653   -0.9534 O   0  0  0  0  0  0  0  0  0  0  0  0
    6.3460    3.4001   -0.4997 C   0  0  0  0  0  0  0  0  0  0  0  0
    2.5200    1.0000    1.0000 C   0  0  0  0  0  0  0  0  0  0  0  0
    1.0000    1.0000    1.0000 C   0  0  0  0  0  0  0  0  0  0  0  0
    0.4000    1.0000   -0.0392 O   0  0  0  0  0  0  0  0  0  0  0  0
    0.3150    1.0000    2.1865 N   0  0  0  0  0  0  0  0  0  0  0  0
   -1.1350    1.0000    2.1865 N   0  0  0  0  0  0  0  0  0  0  0  0
   -1.6250   -0.3859    2.1865 C   0  0  0  0  0  0  0  0  0  0  0  0
   -3.1450   -0.3859    2.1865 C   0  0  0  0  0  0  0  0  0  0  0  0
   -3.5883   -1.6399    2.1865 F   0  0  0  0  0  0  0  0  0  0  0  0
   -3.5883    0.2410    3.2724 F   0  0  0  0  0  0  0  0  0  0  0  0
   -3.5883    0.2410    1.1005 F   0  0  0  0  0  0  0  0  0  0  0  0
    3.6854   -2.8696   -1.8357 H   0  0  0  0  0  0  0  0  0  0  0  0
    3.9772   -1.0791   -0.2689 H   0  0  0  0  0  0  0  0  0  0  0  0
    1.6719    1.3845   -2.6797 H   0  0  0  0  0  0  0  0  0  0  0  0
    1.3799   -0.4062   -4.2468 H   0  0  0  0  0  0  0  0  0  0  0  0
    2.5092    2.2281   -0.6779 H   0  0  0  0  0  0  0  0  0  0  0  0
    5.1154    1.0913    0.0242 H   0  0  0  0  0  0  0  0  0  0  0  0
    6.8634    2.6030   -0.1885 H   0  0  0  0  0  0  0  0  0  0  0  0
    6.6793    3.6836   -1.3989 H   0  0  0  0  0  0  0  0  0  0  0  0
    6.4649    4.1497    0.1514 H   0  0  0  0  0  0  0  0  0  0  0  0
    2.8533    0.0795    1.2041 H   0  0  0  0  0  0  0  0  0  0  0  0
    2.8533    1.6370    1.6951 H   0  0  0  0  0  0  0  0  0  0  0  0
    0.8150    1.0000    3.0525 H   0  0  0  0  0  0  0  0  0  0  0  0
   -1.4683    1.4714    1.3700 H   0  0  0  0  0  0  0  0  0  0  0  0
   -1.2917   -0.8573    3.0030 H   0  0  0  0  0  0  0  0  0  0  0  0
   -1.2917   -0.8573    1.3700 H   0  0  0  0  0  0  0  0  0  0  0  0
  1  2  1  0  0  0  0
  2  3  1  0  0  0  0
  3  4  2  0  0  0  0
  4  5  1  0  0  0  0
  5  6  2  0  0  0  0
  6  7  1  0  0  0  0
  7  2  2  0  0  0  0
  5  8  1  0  0  0  0
  8  9  1  0  0  0  0
  9 10  1  0  0  0  0
 10 11  2  0  0  0  0
 10 12  1  0  0  0  0
  8 13  1  0  0  0  0
 13 14  1  0  0  0  0
 14 15  2  0  0  0  0
 14 16  1  0  0  0  0
 16 17  1  0  0  0  0
 17 18  1  0  0  0  0
 18 19  1  0  0  0  0
 19 20  1  0  0  0  0
 19 21  1  0  0  0  0
 19 22  1  0  0  0  0
  3 23  1  0  0  0  0
  4 24  1  0  0  0  0
  6 25  1  0  0  0  0
  7 26  1  0  0  0  0
  8 27  1  0  0  0  0
  9 28  1  0  0  0  0
 12 29  1  0  0  0  0
 12 30  1  0  0  0  0
 12 31  1  0  0  0  0
 13 32  1  0  0  0  0
 13 33  1  0  0  0  0
 16 34  1  0  0  0  0
 17 35  1  0  0  0  0
 18 36  1  0  0  0  0
 18 37  1  0  0  0  0
M  END
>  <result-rank>
25

>  <similarity>
0.946

>  <query-name>
LIG_A_1101_2_02

>  <query-smiles>
BrC#CCNC(=O)[C@@H](NC(=O)C)Cc1ccc(O)cc1

>  <source>
REALspace_2019-12

>  <similarity-descriptor>
0.968;0.968;0.968;0.999;0.742;0.847;1.000;1.000;1.000;1.000;1.000;0.0;0.0

>  <similarity-descriptor-smiles>
Clc1ccccc1;C(F)(F)F;C(F)(F)F;C;N;C(=O)N;CC;N;C=O;C;CC;;

>  <reaction-name>
s_240690a

>  <reagent1-name>
16762142

>  <reagent1-smiles>
[R1*]NNCC(F)(F)F

>  <reagent2-name>
7408864

>  <reagent2-smiles>
[R1*]C(=O)CC(NC(=O)C)c1ccc(Cl)cc1

$$$$
s_22____532122____58844
          04022015103D 1   1.00000     0.00000     0
            
 29 29  0  0  0  0            999 V2000
   -2.9917    2.1240    2.4826 F   0  0  0  0  0  0  0  0  0  0  0  0
   -1.6617    2.1240    2.4826 C   0  0  0  0  0  0  0  0  0  0  0  0
   -1.2183    1.0122    3.0625 F   0  0  0  0  0  0  0  0  0  0  0  0
   -1.2183    3.1820    3.1555 F   0  0  0  0  0  0  0  0  0  0  0  0
   -1.1550    2.1854    1.0508 C   0  0  0  0  0  0  0  0  0  0  0  0
    0.3150    2.1854    1.0508 N   0  0  0  0  0  0  0  0  0  0  0  0
    1.0000    1.0000    1.0000 C   0  0  0  0  0  0  0  0  0  0  0  0
    0.4000   -0.0383    0.9555 O   0  0  0  0  0  0  0  0  0  0  0  0
    2.4501    1.0000    1.0000 C   0  0  0  0  0  0  0  0  0  0  0  0
    3.1287   -0.2134    0.9480 C   0  0  0  0  0  0  0  0  0  0  0  0
    4.5197   -0.2237    0.9475 C   0  0  0  0  0  0  0  0  0  0  0  0
    5.2153    0.9799    1.0000 C   0  0  0  0  0  0  0  0  0  0  0  0
    6.6147    0.9791    1.0002 N   0  0  0  0  0  0  0  0  0  0  0  0
    7.3001    1.1338    2.1763 C   0  0  0  0  0  0  0  0  0  0  0  0
    6.7545    0.9134    3.2221 O   0  0  0  0  0  0  0  0  0  0  0  0
    8.7516    1.5846    2.1565 C   0  0  0  0  0  0  0  0  0  0  0  0
    4.5359    2.1932    1.0521 C   0  0  0  0  0  0  0  0  0  0  0  0
    3.1449    2.2034    1.0523 C   0  0  0  0  0  0  0  0  0  0  0  0
   -1.4883    1.3898    0.5449 H   0  0  0  0  0  0  0  0  0  0  0  0
   -1.4883    3.0213    0.6148 H   0  0  0  0  0  0  0  0  0  0  0  0
    0.8150    3.0506    1.0879 H   0  0  0  0  0  0  0  0  0  0  0  0
    2.6195   -1.0732    0.9111 H   0  0  0  0  0  0  0  0  0  0  0  0
    5.0165   -1.0907    0.9096 H   0  0  0  0  0  0  0  0  0  0  0  0
    7.1146    0.8656    0.1416 H   0  0  0  0  0  0  0  0  0  0  0  0
    9.0450    1.7220    1.2105 H   0  0  0  0  0  0  0  0  0  0  0  0
    8.8408    2.4433    2.6612 H   0  0  0  0  0  0  0  0  0  0  0  0
    9.3237    0.8852    2.5848 H   0  0  0  0  0  0  0  0  0  0  0  0
    5.0449    3.0531    1.0892 H   0  0  0  0  0  0  0  0  0  0  0  0
    2.6480    3.0704    1.0898 H   0  0  0  0  0  0  0  0  0  0  0  0
  1  2  1  0  0  0  0
  2  3  1  0  0  0  0
  2  4  1  0  0  0  0
  2  5  1  0  0  0  0
  5  6  1  0  0  0  0
  6  7  1  0  0  0  0
  7  8  2  0  0  0  0
  7  9  1  0  0  0  0
  9 10  1  0  0  0  0
 10 11  2  0  0  0  0
 11 12  1  0  0  0  0
 12 13  1  0  0  0  0
 13 14  1  0  0  0  0
 14 15  2  0  0  0  0
 14 16  1  0  0  0  0
 12 17  2  0  0  0  0
 17 18  1  0  0  0  0
 18  9  2  0  0  0  0
  5 19  1  0  0  0  0
  5 20  1  0  0  0  0
  6 21  1  0  0  0  0
 10 22  1  0  0  0  0
 11 23  1  0  0  0  0
 13 24  1  0  0  0  0
 16 25  1  0  0  0  0
 16 26  1  0  0  0  0
 16 27  1  0  0  0  0
 17 28  1  0  0  0  0
 18 29  1  0  0  0  0
M  END
>  <result-rank>
26

>  <similarity>
0.946

>  <query-name>
LIG_A_1101_2_02

>  <query-smiles>
BrC#CCNC(=O)[C@@H](NC(=O)C)Cc1ccc(O)cc1

>  <source>
REALspace_2019-12

>  <similarity-descriptor>
0.893;0.968;0.968;0.999;1.000;1.000;0.893;1.000;1.000;1.000;0.893;0.0;0.0

>  <similarity-descriptor-smiles>
c1ccccc1;FC(F)F;FC(F)F;C;N;C=O;c1ccccc1;N;C=O;C;c1ccccc1;;

>  <reaction-name>
s_22

>  <reagent1-name>
532122

>  <reagent1-smiles>
[R1*]Nc1ccc(cc1)C(=O)NCC(F)(F)F

>  <reagent2-name>
58844

>  <reagent2-smiles>
[R1*]C(=O)C

$$$$
s_22____8859908____59693
          04022015103D 1   1.00000     0.00000     0
            
 41 41  0  0  0  0            999 V2000
    0.4000    1.0000   -0.0392 O   0  0  0  0  0  0  0  0  0  0  0  0
    1.0000    1.0000    1.0000 C   0  0  0  0  0  0  0  0  0  0  0  0
    0.3150    1.0000    2.1865 N   0  0  0  0  0  0  0  0  0  0  0  0
   -1.1550    1.0000    2.1865 C   0  0  3  0  0  0  0  0  0  0  0  0
   -1.6617    2.2411    2.9030 C   0  0  0  0  0  0  0  0  0  0  0  0
   -2.0583    3.2127    3.4640 C   0  0  0  0  0  0  0  0  0  0  0  0
   -1.6617   -0.2411    2.9030 C   0  0  0  0  0  0  0  0  0  0  0  0
   -3.0817   -0.2411    2.9030 O   0  0  0  0  0  0  0  0  0  0  0  0
   -3.5550   -1.4005    3.5724 C   0  0  0  0  0  0  0  0  0  0  0  0
    2.5200    1.0000    1.0000 C   0  0  0  0  0  0  0  0  0  0  0  0
    3.0267    1.4309   -0.3667 C   0  0  3  0  0  0  0  0  0  0  0  0
    4.4855    1.6046   -0.3161 N   0  0  0  0  0  0  0  0  0  0  0  0
    5.0404    2.8242   -0.6018 C   0  0  0  0  0  0  0  0  0  0  0  0
    4.3356    3.7506   -0.8934 O   0  0  0  0  0  0  0  0  0  0  0  0
    6.5489    3.0038   -0.5495 C   0  0  0  0  0  0  0  0  0  0  0  0
    2.6784    0.3666   -1.3950 C   0  0  0  0  0  0  0  0  0  0  0  0
    3.1262   -0.9380   -1.2150 C   0  0  0  0  0  0  0  0  0  0  0  0
    2.8060   -1.9086   -2.1588 C   0  0  0  0  0  0  0  0  0  0  0  0
    2.0424   -1.5717   -3.2714 C   0  0  0  0  0  0  0  0  0  0  0  0
    1.6002   -0.2654   -3.4405 C   0  0  0  0  0  0  0  0  0  0  0  0
    1.9142    0.7144   -2.5044 C   0  0  0  0  0  0  0  0  0  0  0  0
    0.8150    1.0000    3.0525 H   0  0  0  0  0  0  0  0  0  0  0  0
   -1.4883    1.0000    1.2436 H   0  0  0  0  0  0  0  0  0  0  0  0
   -2.3917    4.0292    3.9354 H   0  0  0  0  0  0  0  0  0  0  0  0
   -1.3283   -1.0576    2.4316 H   0  0  0  0  0  0  0  0  0  0  0  0
   -1.3283   -0.2411    3.8458 H   0  0  0  0  0  0  0  0  0  0  0  0
   -4.5550   -1.4005    3.5724 H   0  0  0  0  0  0  0  0  0  0  0  0
   -3.2217   -2.2170    3.1010 H   0  0  0  0  0  0  0  0  0  0  0  0
   -3.2217   -1.4005    4.5152 H   0  0  0  0  0  0  0  0  0  0  0  0
    2.8533    0.0795    1.2041 H   0  0  0  0  0  0  0  0  0  0  0  0
    2.8533    1.6370    1.6951 H   0  0  0  0  0  0  0  0  0  0  0  0
    2.5967    2.2963   -0.6240 H   0  0  0  0  0  0  0  0  0  0  0  0
    5.0728    0.8326   -0.0731 H   0  0  0  0  0  0  0  0  0  0  0  0
    6.9789    2.1384   -0.2922 H   0  0  0  0  0  0  0  0  0  0  0  0
    6.8822    3.2873   -1.4486 H   0  0  0  0  0  0  0  0  0  0  0  0
    6.7779    3.7039    0.1269 H   0  0  0  0  0  0  0  0  0  0  0  0
    3.6742   -1.1764   -0.4132 H   0  0  0  0  0  0  0  0  0  0  0  0
    3.1249   -2.8486   -2.0372 H   0  0  0  0  0  0  0  0  0  0  0  0
    1.8117   -2.2695   -3.9495 H   0  0  0  0  0  0  0  0  0  0  0  0
    1.0515   -0.0276   -4.2421 H   0  0  0  0  0  0  0  0  0  0  0  0
    1.5955    1.6543   -2.6269 H   0  0  0  0  0  0  0  0  0  0  0  0
  1  2  2  0  0  0  0
  2  3  1  0  0  0  0
  3  4  1  0  0  0  0
  4  5  1  0  0  0  0
  5  6  3  0  0  0  0
  4  7  1  0  0  0  0
  7  8  1  0  0  0  0
  8  9  1  0  0  0  0
  2 10  1  0  0  0  0
 10 11  1  0  0  0  0
 11 12  1  0  0  0  0
 12 13  1  0  0  0  0
 13 14  2  0  0  0  0
 13 15  1  0  0  0  0
 11 16  1  0  0  0  0
 16 17  1  0  0  0  0
 17 18  2  0  0  0  0
 18 19  1  0  0  0  0
 19 20  2  0  0  0  0
 20 21  1  0  0  0  0
 21 16  2  0  0  0  0
  3 22  1  0  0  0  0
  4 23  1  0  0  0  0
  6 24  1  0  0  0  0
  7 25  1  0  0  0  0
  7 26  1  0  0  0  0
  9 27  1  0  0  0  0
  9 28  1  0  0  0  0
  9 29  1  0  0  0  0
 10 30  1  0  0  0  0
 10 31  1  0  0  0  0
 11 32  1  0  0  0  0
 12 33  1  0  0  0  0
 15 34  1  0  0  0  0
 15 35  1  0  0  0  0
 15 36  1  0  0  0  0
 17 37  1  0  0  0  0
 18 38  1  0  0  0  0
 19 39  1  0  0  0  0
 20 40  1  0  0  0  0
 21 41  1  0  0  0  0
M  END
>  <result-rank>
27

>  <similarity>
0.944

>  <query-name>
LIG_A_1101_2_02

>  <query-smiles>
BrC#CCNC(=O)[C@@H](NC(=O)C)Cc1ccc(O)cc1

>  <source>
REALspace_2019-12

>  <similarity-descriptor>
0.960;0.911;1.000;0.952;0.952;1.000;1.000;1.000;1.000;1.000;1.000;0.0;0.214

>  <similarity-descriptor-smiles>
c1ccccc1;C;C;NC;NC;O=C;CC;N;C=O;C;CC;;C.O.C

>  <reaction-name>
s_22

>  <reagent1-name>
8859908

>  <reagent1-smiles>
[R1*]NC(C#C)COC

>  <reagent2-name>
59693

>  <reagent2-smiles>
[R1*]C(=O)CC(NC(=O)C)c1ccccc1

$$$$
s_22____13605040____17513450
          04022015103D 1   1.00000     0.00000     0
            
 47 47  0  0  0  0            999 V2000
    0.4000    1.0000   -0.0392 O   0  0  0  0  0  0  0  0  0  0  0  0
    1.0000    1.0000    1.0000 C   0  0  0  0  0  0  0  0  0  0  0  0
    0.3150    1.0000    2.1865 N   0  0  0  0  0  0  0  0  0  0  0  0
    0.9835    1.4354    3.4211 C   0  0  0  0  0  0  0  0  0  0  0  0
    0.6609    2.8974    3.6834 C   0  0  0  0  0  0  0  0  0  0  0  0
    0.4084    4.0421    3.8888 C   0  0  0  0  0  0  0  0  0  0  0  0
   -1.0885    0.5646    2.2248 C   0  0  0  0  0  0  0  0  0  0  0  0
   -1.1498   -0.9533    2.1718 C   0  0  0  0  0  0  0  0  0  0  0  0
   -1.1148   -1.5114    3.5852 C   0  0  0  0  0  0  0  0  0  0  0  0
   -2.4370   -1.3848    1.4883 C   0  0  0  0  0  0  0  0  0  0  0  0
    2.5200    1.0000    1.0000 C   0  0  3  0  0  0  0  0  0  0  0  0
    3.0100    1.5857   -0.2561 N   0  0  0  0  0  0  0  0  0  0  0  0
    3.7976    2.7063   -0.2279 C   0  0  0  0  0  0  0  0  0  0  0  0
    4.0875    3.2097    0.8221 O   0  0  0  0  0  0  0  0  0  0  0  0
    4.3043    3.3120   -1.5267 C   0  0  0  0  0  0  0  0  0  0  0  0
    3.0267   -0.4276    1.1249 C   0  0  0  0  0  0  0  0  0  0  0  0
    4.4439   -0.4160    1.6744 C   0  0  0  0  0  0  0  0  0  0  0  0
    4.6450   -0.4672    3.0498 C   0  0  0  0  0  0  0  0  0  0  0  0
    5.9400   -0.4576    3.5572 C   0  0  0  0  0  0  0  0  0  0  0  0
    7.0190   -0.3973    2.6809 C   0  0  0  0  0  0  0  0  0  0  0  0
    8.2774   -0.3875    3.1690 O   0  0  0  0  0  0  0  0  0  0  0  0
    6.8233   -0.3457    1.3045 C   0  0  0  0  0  0  0  0  0  0  0  0
    5.5263   -0.3560    0.8027 C   0  0  0  0  0  0  0  0  0  0  0  0
    1.9724    1.3249    3.3215 H   0  0  0  0  0  0  0  0  0  0  0  0
    0.6616    0.8802    4.1881 H   0  0  0  0  0  0  0  0  0  0  0  0
    0.1962    5.0039    4.0613 H   0  0  0  0  0  0  0  0  0  0  0  0
   -1.5773    0.9455    1.4400 H   0  0  0  0  0  0  0  0  0  0  0  0
   -1.5142    0.8860    3.0707 H   0  0  0  0  0  0  0  0  0  0  0  0
   -0.3662   -1.3007    1.6568 H   0  0  0  0  0  0  0  0  0  0  0  0
   -1.1551   -2.5100    3.5503 H   0  0  0  0  0  0  0  0  0  0  0  0
   -0.2680   -1.2275    4.0349 H   0  0  0  0  0  0  0  0  0  0  0  0
   -1.8984   -1.1640    4.1003 H   0  0  0  0  0  0  0  0  0  0  0  0
   -2.4773   -2.3834    1.4534 H   0  0  0  0  0  0  0  0  0  0  0  0
   -3.2206   -1.0374    2.0034 H   0  0  0  0  0  0  0  0  0  0  0  0
   -2.4599   -1.0176    0.5585 H   0  0  0  0  0  0  0  0  0  0  0  0
    2.8533    1.5408    1.7723 H   0  0  0  0  0  0  0  0  0  0  0  0
    2.7684    1.1662   -1.1311 H   0  0  0  0  0  0  0  0  0  0  0  0
    3.9710    2.7712   -2.2990 H   0  0  0  0  0  0  0  0  0  0  0  0
    3.9710    4.2512   -1.6089 H   0  0  0  0  0  0  0  0  0  0  0  0
    5.3043    3.3120   -1.5267 H   0  0  0  0  0  0  0  0  0  0  0  0
    2.4326   -0.9390    1.7458 H   0  0  0  0  0  0  0  0  0  0  0  0
    3.0218   -0.8630    0.2247 H   0  0  0  0  0  0  0  0  0  0  0  0
    3.8624   -0.5107    3.6708 H   0  0  0  0  0  0  0  0  0  0  0  0
    6.0944   -0.4938    4.5445 H   0  0  0  0  0  0  0  0  0  0  0  0
    9.0562   -0.3442    2.5431 H   0  0  0  0  0  0  0  0  0  0  0  0
    7.6059   -0.3017    0.6835 H   0  0  0  0  0  0  0  0  0  0  0  0
    5.3718   -0.3202   -0.1847 H   0  0  0  0  0  0  0  0  0  0  0  0
  1  2  2  0  0  0  0
  2  3  1  0  0  0  0
  3  4  1  0  0  0  0
  4  5  1  0  0  0  0
  5  6  3  0  0  0  0
  3  7  1  0  0  0  0
  7  8  1  0  0  0  0
  8  9  1  0  0  0  0
  8 10  1  0  0  0  0
  2 11  1  0  0  0  0
 11 12  1  0  0  0  0
 12 13  1  0  0  0  0
 13 14  2  0  0  0  0
 13 15  1  0  0  0  0
 11 16  1  0  0  0  0
 16 17  1  0  0  0  0
 17 18  1  0  0  0  0
 18 19  2  0  0  0  0
 19 20  1  0  0  0  0
 20 21  1  0  0  0  0
 20 22  2  0  0  0  0
 22 23  1  0  0  0  0
 23 17  2  0  0  0  0
  4 24  1  0  0  0  0
  4 25  1  0  0  0  0
  6 26  1  0  0  0  0
  7 27  1  0  0  0  0
  7 28  1  0  0  0  0
  8 29  1  0  0  0  0
  9 30  1  0  0  0  0
  9 31  1  0  0  0  0
  9 32  1  0  0  0  0
 10 33  1  0  0  0  0
 10 34  1  0  0  0  0
 10 35  1  0  0  0  0
 11 36  1  0  0  0  0
 12 37  1  0  0  0  0
 15 38  1  0  0  0  0
 15 39  1  0  0  0  0
 15 40  1  0  0  0  0
 16 41  1  0  0  0  0
 16 42  1  0  0  0  0
 18 43  1  0  0  0  0
 19 44  1  0  0  0  0
 21 45  1  0  0  0  0
 22 46  1  0  0  0  0
 23 47  1  0  0  0  0
M  END
>  <result-rank>
28

>  <similarity>
0.943

>  <query-name>
LIG_A_1101_2_02

>  <query-smiles>
BrC#CCNC(=O)[C@@H](NC(=O)C)Cc1ccc(O)cc1

>  <source>
REALspace_2019-12

>  <similarity-descriptor>
1.000;0.911;0.983;0.983;0.852;0.852;1.000;1.000;1.000;1.000;1.000;1.000;0.250

>  <similarity-descriptor-smiles>
c1ccccc1;C;NCC;NCC;O=C;O=C;C;N;C=O;C;C;O;C.C.C.C

>  <reaction-name>
s_22

>  <reagent1-name>
13605040

>  <reagent1-smiles>
[R1*]N(CC#C)CC(C)C

>  <reagent2-name>
17513450

>  <reagent2-smiles>
[R1*]C(=O)C(NC(=O)C)Cc1ccc(O)cc1

$$$$
s_22____10176574____9736332
          04022015103D 1   1.00000     0.00000     0
            
 32 32  0  0  0  0            999 V2000
   -3.6217   -0.4113    1.9376 Br  0  0  0  0  0  0  0  0  0  0  0  0
   -1.6617   -0.4113    1.9376 C   0  0  0  0  0  0  0  0  0  0  0  0
   -1.2183   -0.8402    0.7593 F   0  0  0  0  0  0  0  0  0  0  0  0
   -1.2183   -1.2173    2.8982 F   0  0  0  0  0  0  0  0  0  0  0  0
   -1.1550    1.0000    2.1865 C   0  0  0  0  0  0  0  0  0  0  0  0
    0.3150    1.0000    2.1865 N   0  0  0  0  0  0  0  0  0  0  0  0
    1.0000    1.0000    1.0000 C   0  0  0  0  0  0  0  0  0  0  0  0
    0.4000    1.0000   -0.0392 O   0  0  0  0  0  0  0  0  0  0  0  0
    2.5200    1.0000    1.0000 C   0  0  3  0  0  0  0  0  0  0  0  0
    3.0100    0.1091    2.0617 N   0  0  0  0  0  0  0  0  0  0  0  0
    3.7976    0.6082    3.0654 C   0  0  0  0  0  0  0  0  0  0  0  0
    4.0875    1.7726    3.0779 O   0  0  0  0  0  0  0  0  0  0  0  0
    4.3043   -0.3129    4.1632 C   0  0  0  0  0  0  0  0  0  0  0  0
    3.0267    0.5099   -0.3466 C   0  0  0  0  0  0  0  0  0  0  0  0
    4.5482    0.5099   -0.3466 C   0  0  0  0  0  0  0  0  0  0  0  0
    5.3561   -0.5205    0.0284 N   0  0  0  0  0  0  0  0  0  0  0  0
    6.6175   -0.1695   -0.1034 C   0  0  0  0  0  0  0  0  0  0  0  0
    6.6386    1.1139   -0.5768 N   0  0  0  0  0  0  0  0  0  0  0  0
    5.3513    1.5485   -0.7256 C   0  0  0  0  0  0  0  0  0  0  0  0
   -1.4883    1.6060    1.4642 H   0  0  0  0  0  0  0  0  0  0  0  0
   -1.4883    1.3225    3.0724 H   0  0  0  0  0  0  0  0  0  0  0  0
    0.8150    1.0000    3.0525 H   0  0  0  0  0  0  0  0  0  0  0  0
    2.8533    1.9285    1.1637 H   0  0  0  0  0  0  0  0  0  0  0  0
    2.7684   -0.8612    2.0513 H   0  0  0  0  0  0  0  0  0  0  0  0
    3.9710   -1.2414    3.9995 H   0  0  0  0  0  0  0  0  0  0  0  0
    5.3043   -0.3129    4.1632 H   0  0  0  0  0  0  0  0  0  0  0  0
    3.9710    0.0095    5.0491 H   0  0  0  0  0  0  0  0  0  0  0  0
    2.6933   -0.4186   -0.5104 H   0  0  0  0  0  0  0  0  0  0  0  0
    2.6933    1.1159   -1.0689 H   0  0  0  0  0  0  0  0  0  0  0  0
    7.4143   -0.7368    0.1044 H   0  0  0  0  0  0  0  0  0  0  0  0
    7.4603    1.6462   -0.7803 H   0  0  0  0  0  0  0  0  0  0  0  0
    5.0558    2.4479   -1.0479 H   0  0  0  0  0  0  0  0  0  0  0  0
  1  2  1  0  0  0  0
  2  3  1  0  0  0  0
  2  4  1  0  0  0  0
  2  5  1  0  0  0  0
  5  6  1  0  0  0  0
  6  7  1  0  0  0  0
  7  8  2  0  0  0  0
  7  9  1  0  0  0  0
  9 10  1  0  0  0  0
 10 11  1  0  0  0  0
 11 12  2  0  0  0  0
 11 13  1  0  0  0  0
  9 14  1  0  0  0  0
 14 15  1  0  0  0  0
 15 16  1  0  0  0  0
 16 17  2  0  0  0  0
 17 18  1  0  0  0  0
 18 19  1  0  0  0  0
 15 19  2  0  0  0  0
  5 20  1  0  0  0  0
  5 21  1  0  0  0  0
  6 22  1  0  0  0  0
  9 23  1  0  0  0  0
 10 24  1  0  0  0  0
 13 25  1  0  0  0  0
 13 26  1  0  0  0  0
 13 27  1  0  0  0  0
 14 28  1  0  0  0  0
 14 29  1  0  0  0  0
 17 30  1  0  0  0  0
 18 31  1  0  0  0  0
 19 32  1  0  0  0  0
M  END
>  <result-rank>
29

>  <similarity>
0.943

>  <query-name>
LIG_A_1101_2_02

>  <query-smiles>
BrC#CCNC(=O)[C@@H](NC(=O)C)Cc1ccc(O)cc1

>  <source>
REALspace_2019-12

>  <similarity-descriptor>
0.823;0.986;0.986;0.999;1.000;1.000;1.000;1.000;1.000;1.000;1.000;0.823;0.0

>  <similarity-descriptor-smiles>
C1=CNC=N1;BrC(F)F;BrC(F)F;C;N;C=O;C;N;C=O;C;C;C1=CNC=N1;

>  <reaction-name>
s_22

>  <reagent1-name>
10176574

>  <reagent1-smiles>
[R1*]NCC(Br)(F)F

>  <reagent2-name>
9736332

>  <reagent2-smiles>
[R1*]C(=O)C(NC(=O)C)CC=1N=CNC1

$$$$
s_22____12916098____58844
          04022015103D 1   1.00000     0.00000     0
            
 32 32  0  0  0  0            999 V2000
    3.6355    0.5306    2.6002 F   0  0  0  0  0  0  0  0  0  0  0  0
    2.4729    1.0399    2.9975 C   0  0  0  0  0  0  0  0  0  0  0  0
    2.6667    1.8046    4.0682 F   0  0  0  0  0  0  0  0  0  0  0  0
    1.6375    0.0514    3.3040 F   0  0  0  0  0  0  0  0  0  0  0  0
    1.8776    1.8776    1.8776 C   0  0  3  0  0  0  0  0  0  0  0  0
    2.9238    2.4338    1.0950 O   0  0  0  0  0  0  0  0  0  0  0  0
    1.0000    1.0000    1.0000 C   0  0  3  0  0  0  0  0  0  0  0  0
    1.8487    0.1513    0.1513 N   0  0  0  0  0  0  0  0  0  0  0  0
    1.5592   -1.1799    0.0065 C   0  0  0  0  0  0  0  0  0  0  0  0
    0.6128   -1.6531    0.5726 O   0  0  0  0  0  0  0  0  0  0  0  0
    2.4368   -2.0575   -0.8710 C   0  0  0  0  0  0  0  0  0  0  0  0
    0.1224    1.8776    0.1224 C   0  0  0  0  0  0  0  0  0  0  0  0
   -0.7553    0.9998   -0.7553 C   0  0  0  0  0  0  0  0  0  0  0  0
   -0.2987    0.6020   -2.0076 C   0  0  0  0  0  0  0  0  0  0  0  0
   -1.1054   -0.2004   -2.8079 C   0  0  0  0  0  0  0  0  0  0  0  0
   -2.3578   -0.6002   -2.3537 C   0  0  0  0  0  0  0  0  0  0  0  0
   -2.8033   -0.1971   -1.1008 C   0  0  0  0  0  0  0  0  0  0  0  0
   -2.0064    0.6058   -0.2914 C   0  0  0  0  0  0  0  0  0  0  0  0
    1.3265    2.6144    2.2693 H   0  0  0  0  0  0  0  0  0  0  0  0
    2.5321    2.9849    0.3582 H   0  0  0  0  0  0  0  0  0  0  0  0
    0.4226    0.4226    1.5774 H   0  0  0  0  0  0  0  0  0  0  0  0
    2.6374    0.5456   -0.3204 H   0  0  0  0  0  0  0  0  0  0  0  0
    3.1735   -1.5064   -1.2627 H   0  0  0  0  0  0  0  0  0  0  0  0
    2.8285   -2.7943   -0.3199 H   0  0  0  0  0  0  0  0  0  0  0  0
    1.8856   -2.4492   -1.6078 H   0  0  0  0  0  0  0  0  0  0  0  0
   -0.4549    2.4549    0.6998 H   0  0  0  0  0  0  0  0  0  0  0  0
    0.6998    2.4549   -0.4549 H   0  0  0  0  0  0  0  0  0  0  0  0
    0.6027    0.8907   -2.3301 H   0  0  0  0  0  0  0  0  0  0  0  0
   -0.7848   -0.4899   -3.7098 H   0  0  0  0  0  0  0  0  0  0  0  0
   -2.9375   -1.1775   -2.9287 H   0  0  0  0  0  0  0  0  0  0  0  0
   -3.7045   -0.4867   -0.7783 H   0  0  0  0  0  0  0  0  0  0  0  0
   -2.3278    0.8954    0.6102 H   0  0  0  0  0  0  0  0  0  0  0  0
  1  2  1  0  0  0  0
  2  3  1  0  0  0  0
  2  4  1  0  0  0  0
  2  5  1  0  0  0  0
  5  6  1  0  0  0  0
  5  7  1  0  0  0  0
  7  8  1  0  0  0  0
  8  9  1  0  0  0  0
  9 10  2  0  0  0  0
  9 11  1  0  0  0  0
  7 12  1  0  0  0  0
 12 13  1  0  0  0  0
 13 14  1  0  0  0  0
 14 15  2  0  0  0  0
 15 16  1  0  0  0  0
 16 17  2  0  0  0  0
 17 18  1  0  0  0  0
 18 13  2  0  0  0  0
  5 19  1  0  0  0  0
  6 20  1  0  0  0  0
  7 21  1  0  0  0  0
  8 22  1  0  0  0  0
 11 23  1  0  0  0  0
 11 24  1  0  0  0  0
 11 25  1  0  0  0  0
 12 26  1  0  0  0  0
 12 27  1  0  0  0  0
 14 28  1  0  0  0  0
 15 29  1  0  0  0  0
 16 30  1  0  0  0  0
 17 31  1  0  0  0  0
 18 32  1  0  0  0  0
M  END
>  <result-rank>
30

>  <similarity>
0.942

>  <query-name>
LIG_A_1101_2_02

>  <query-smiles>
BrC#CCNC(=O)[C@@H](NC(=O)C)Cc1ccc(O)cc1

>  <source>
REALspace_2019-12

>  <similarity-descriptor>
0.960;0.968;0.968;0.809;0.809;0.809;1.000;1.000;1.000;1.000;1.000;0.0;0.0

>  <similarity-descriptor-smiles>
c1ccccc1;FC(F)F;FC(F)F;CO;CO;CO;CC;N;C=O;C;CC;;

>  <reaction-name>
s_22

>  <reagent1-name>
12916098

>  <reagent1-smiles>
[R1*]NC(C(O)C(F)(F)F)Cc1ccccc1

>  <reagent2-name>
58844

>  <reagent2-smiles>
[R1*]C(=O)C

$$$$
s_22____10428088____17513450
          04022015103D 1   1.00000     0.00000     0
            
 38 38  0  0  0  0            999 V2000
    0.4000   -0.0392    1.0000 O   0  0  0  0  0  0  0  0  0  0  0  0
    1.0000    1.0000    1.0000 C   0  0  0  0  0  0  0  0  0  0  0  0
    2.3700    1.0000    1.0000 N   0  0  0  0  0  0  0  0  0  0  0  0
    3.1050   -0.2731    1.0000 C   0  0  0  0  0  0  0  0  0  0  0  0
    4.5994    0.0047    1.0000 C   0  0  0  0  0  0  0  0  0  0  0  0
    5.2385    0.1235    2.1258 C   0  0  0  0  0  0  0  0  0  0  0  0
    5.8775    0.2422    3.2517 C   0  0  0  0  0  0  0  0  0  0  0  0
    0.2400    2.3164    1.0000 C   0  0  3  0  0  0  0  0  0  0  0  0
   -1.2052    2.0477    1.0000 N   0  0  0  0  0  0  0  0  0  0  0  0
   -1.9871    2.5058    2.0275 C   0  0  0  0  0  0  0  0  0  0  0  0
   -1.4922    3.1263    2.9275 O   0  0  0  0  0  0  0  0  0  0  0  0
   -3.4815    2.2281    2.0275 C   0  0  0  0  0  0  0  0  0  0  0  0
    0.6072    3.1134   -0.2411 C   0  0  0  0  0  0  0  0  0  0  0  0
   -0.1528    4.4298   -0.2411 C   0  0  0  0  0  0  0  0  0  0  0  0
    0.4132    5.5469    0.3644 C   0  0  0  0  0  0  0  0  0  0  0  0
   -0.2782    6.7537    0.3662 C   0  0  0  0  0  0  0  0  0  0  0  0
   -1.5287    6.8280   -0.2391 C   0  0  0  0  0  0  0  0  0  0  0  0
   -2.2034    7.9972   -0.2393 O   0  0  0  0  0  0  0  0  0  0  0  0
   -2.0995    5.7138   -0.8457 C   0  0  0  0  0  0  0  0  0  0  0  0
   -1.4035    4.5097   -0.8449 C   0  0  0  0  0  0  0  0  0  0  0  0
    2.8700    1.8660    1.0000 H   0  0  0  0  0  0  0  0  0  0  0  0
    2.8634   -0.7974    0.1835 H   0  0  0  0  0  0  0  0  0  0  0  0
    2.8634   -0.7974    1.8165 H   0  0  0  0  0  0  0  0  0  0  0  0
    5.0910    0.0961    0.1340 H   0  0  0  0  0  0  0  0  0  0  0  0
    6.2816   -0.5635    3.6847 H   0  0  0  0  0  0  0  0  0  0  0  0
    5.9651    1.1394    3.6847 H   0  0  0  0  0  0  0  0  0  0  0  0
    0.4816    2.8407    1.8165 H   0  0  0  0  0  0  0  0  0  0  0  0
   -1.6177    1.5307    0.2500 H   0  0  0  0  0  0  0  0  0  0  0  0
   -3.7231    1.7037    1.2110 H   0  0  0  0  0  0  0  0  0  0  0  0
   -3.7231    1.7037    2.8440 H   0  0  0  0  0  0  0  0  0  0  0  0
   -3.9815    3.0941    2.0275 H   0  0  0  0  0  0  0  0  0  0  0  0
    1.5904    3.2961   -0.2411 H   0  0  0  0  0  0  0  0  0  0  0  0
    0.3656    2.5890   -1.0576 H   0  0  0  0  0  0  0  0  0  0  0  0
    1.3129    5.4826    0.7963 H   0  0  0  0  0  0  0  0  0  0  0  0
    0.1206    7.5620    0.7993 H   0  0  0  0  0  0  0  0  0  0  0  0
   -3.1025    8.0555   -0.6731 H   0  0  0  0  0  0  0  0  0  0  0  0
   -2.9994    5.7778   -1.2771 H   0  0  0  0  0  0  0  0  0  0  0  0
   -1.8020    3.7014   -1.2783 H   0  0  0  0  0  0  0  0  0  0  0  0
  1  2  2  0  0  0  0
  2  3  1  0  0  0  0
  3  4  1  0  0  0  0
  4  5  1  0  0  0  0
  5  6  2  0  0  0  0
  6  7  2  0  0  0  0
  2  8  1  0  0  0  0
  8  9  1  0  0  0  0
  9 10  1  0  0  0  0
 10 11  2  0  0  0  0
 10 12  1  0  0  0  0
  8 13  1  0  0  0  0
 13 14  1  0  0  0  0
 14 15  1  0  0  0  0
 15 16  2  0  0  0  0
 16 17  1  0  0  0  0
 17 18  1  0  0  0  0
 17 19  2  0  0  0  0
 19 20  1  0  0  0  0
 20 14  2  0  0  0  0
  3 21  1  0  0  0  0
  4 22  1  0  0  0  0
  4 23  1  0  0  0  0
  5 24  1  0  0  0  0
  7 25  1  0  0  0  0
  7 26  1  0  0  0  0
  8 27  1  0  0  0  0
  9 28  1  0  0  0  0
 12 29  1  0  0  0  0
 12 30  1  0  0  0  0
 12 31  1  0  0  0  0
 13 32  1  0  0  0  0
 13 33  1  0  0  0  0
 15 34  1  0  0  0  0
 16 35  1  0  0  0  0
 18 36  1  0  0  0  0
 19 37  1  0  0  0  0
 20 38  1  0  0  0  0
M  END
>  <result-rank>
31

>  <similarity>
0.942

>  <query-name>
LIG_A_1101_2_02

>  <query-smiles>
BrC#CCNC(=O)[C@@H](NC(=O)C)Cc1ccc(O)cc1

>  <source>
REALspace_2019-12

>  <similarity-descriptor>
1.000;0.845;0.250;0.999;1.000;1.000;1.000;1.000;1.000;1.000;1.000;1.000;0.077

>  <similarity-descriptor-smiles>
c1ccccc1;C;C;C;N;O=C;C;N;C=O;C;C;O;C

>  <reaction-name>
s_22

>  <reagent1-name>
10428088

>  <reagent1-smiles>
[R1*]NCC=C=C

>  <reagent2-name>
17513450

>  <reagent2-smiles>
[R1*]C(=O)C(NC(=O)C)Cc1ccc(O)cc1

$$$$
s_270062____7604222____15585492
          04022015103D 1   1.00000     0.00000     0
            
 29 29  0  0  0  0            999 V2000
   -2.9235    2.4847    3.4604 F   0  0  0  0  0  0  0  0  0  0  0  0
   -2.2169    1.4927    2.9269 C   0  0  0  0  0  0  0  0  0  0  0  0
   -2.6827    0.1855    3.0318 C   0  0  0  0  0  0  0  0  0  0  0  0
   -3.8269   -0.0647    3.6632 F   0  0  0  0  0  0  0  0  0  0  0  0
   -1.9615   -0.8687    2.4809 C   0  0  0  0  0  0  0  0  0  0  0  0
   -0.7659   -0.6012    1.8220 C   0  0  0  0  0  0  0  0  0  0  0  0
   -0.3055    0.7075    1.7206 C   0  0  0  0  0  0  0  0  0  0  0  0
   -1.0225    1.7652    2.2692 C   0  0  0  0  0  0  0  0  0  0  0  0
    1.0000    1.0000    1.0000 C   0  0  3  0  0  0  0  0  0  0  0  0
    1.8487    1.8487    1.8487 N   0  0  0  0  0  0  0  0  0  0  0  0
    3.0831    1.4052    2.2442 C   0  0  0  0  0  0  0  0  0  0  0  0
    3.4716    0.3240    1.8978 O   0  0  0  0  0  0  0  0  0  0  0  0
    3.9607    2.2828    3.1218 C   0  0  0  0  0  0  0  0  0  0  0  0
    0.7075    1.7208   -0.3059 C   0  0  0  0  0  0  0  0  0  0  0  0
   -0.3868    1.6571   -0.7943 O   0  0  0  0  0  0  0  0  0  0  0  0
    1.6931    2.4433   -0.9252 N   0  0  0  0  0  0  0  0  0  0  0  0
    1.4102    3.1404   -2.1881 C   0  0  0  0  0  0  0  0  0  0  0  0
   -2.2983   -1.8071    2.5575 H   0  0  0  0  0  0  0  0  0  0  0  0
   -0.2375   -1.3496    1.4212 H   0  0  0  0  0  0  0  0  0  0  0  0
   -0.6856    2.7036    2.1921 H   0  0  0  0  0  0  0  0  0  0  0  0
    1.4742    0.1409    0.8075 H   0  0  0  0  0  0  0  0  0  0  0  0
    1.5250    2.7498    2.1374 H   0  0  0  0  0  0  0  0  0  0  0  0
    3.4865    3.1419    3.3142 H   0  0  0  0  0  0  0  0  0  0  0  0
    4.1532    1.8086    3.9809 H   0  0  0  0  0  0  0  0  0  0  0  0
    4.8198    2.4753    2.6475 H   0  0  0  0  0  0  0  0  0  0  0  0
    2.6049    2.4964   -0.5181 H   0  0  0  0  0  0  0  0  0  0  0  0
    2.2340    3.6144   -2.4990 H   0  0  0  0  0  0  0  0  0  0  0  0
    1.1271    2.4757   -2.8795 H   0  0  0  0  0  0  0  0  0  0  0  0
    0.6770    3.8052   -2.0449 H   0  0  0  0  0  0  0  0  0  0  0  0
  1  2  1  0  0  0  0
  2  3  1  0  0  0  0
  3  4  1  0  0  0  0
  3  5  2  0  0  0  0
  5  6  1  0  0  0  0
  6  7  2  0  0  0  0
  7  8  1  0  0  0  0
  8  2  2  0  0  0  0
  7  9  1  0  0  0  0
  9 10  1  0  0  0  0
 10 11  1  0  0  0  0
 11 12  2  0  0  0  0
 11 13  1  0  0  0  0
  9 14  1  0  0  0  0
 14 15  2  0  0  0  0
 14 16  1  0  0  0  0
 16 17  1  0  0  0  0
  5 18  1  0  0  0  0
  6 19  1  0  0  0  0
  8 20  1  0  0  0  0
  9 21  1  0  0  0  0
 10 22  1  0  0  0  0
 13 23  1  0  0  0  0
 13 24  1  0  0  0  0
 13 25  1  0  0  0  0
 16 26  1  0  0  0  0
 17 27  1  0  0  0  0
 17 28  1  0  0  0  0
 17 29  1  0  0  0  0
M  END
>  <result-rank>
32

>  <similarity>
0.942

>  <query-name>
LIG_A_1101_2_02

>  <query-smiles>
BrC#CCNC(=O)[C@@H](NC(=O)C)Cc1ccc(O)cc1

>  <source>
REALspace_2019-12

>  <similarity-descriptor>
0.928;0.0;0.988;0.988;1.000;1.000;1.000;1.000;1.000;1.000;0.928;0.0;0.0

>  <similarity-descriptor-smiles>
Fc1ccccc1F;;C;C;N;C=O;C;N;C=O;C;Fc1ccccc1F;;

>  <reaction-name>
s_270062

>  <reagent1-name>
7604222

>  <reagent1-smiles>
[R1*]NC(c1cc(F)c(F)cc1)C(=O)NC

>  <reagent2-name>
15585492

>  <reagent2-smiles>
[R1*]C(=O)C

$$$$
s_2430a____10971440____14422702
          04022015103D 1   1.00000     0.00000     0
            
 44 44  0  0  0  0            999 V2000
   -2.8333    1.9662    2.6006 F   0  0  0  0  0  0  0  0  0  0  0  0
   -1.6617    2.5574    2.3842 C   0  0  0  0  0  0  0  0  0  0  0  0
   -0.7856    2.1536    3.2999 F   0  0  0  0  0  0  0  0  0  0  0  0
   -1.8094    3.8768    2.4634 F   0  0  0  0  0  0  0  0  0  0  0  0
   -1.1550    2.1865    1.0000 C   0  0  3  0  0  0  0  0  0  0  0  0
    0.3150    2.1865    1.0000 N   0  0  0  0  0  0  0  0  0  0  0  0
    1.0000    1.0000    1.0000 C   0  0  0  0  0  0  0  0  0  0  0  0
    0.4000   -0.0392    1.0000 O   0  0  0  0  0  0  0  0  0  0  0  0
    2.3700    1.0000    1.0000 N   0  0  0  0  0  0  0  0  0  0  0  0
    3.1050   -0.2731    1.0000 C   0  0  3  0  0  0  0  0  0  0  0  0
    3.9789   -0.3536    2.2411 C   0  0  0  0  0  0  0  0  0  0  0  0
    5.0852   -0.8125    2.1672 O   0  0  0  0  0  0  0  0  0  0  0  0
    3.5034    0.0977    3.4441 N   0  0  0  0  0  0  0  0  0  0  0  0
    3.9789   -0.3536   -0.2411 C   0  0  0  0  0  0  0  0  0  0  0  0
    3.1050   -0.2731   -1.4822 C   0  0  0  0  0  0  0  0  0  0  0  0
    2.6004   -1.4427   -2.0410 C   0  0  0  0  0  0  0  0  0  0  0  0
    1.7997   -1.3738   -3.1761 C   0  0  0  0  0  0  0  0  0  0  0  0
    1.5131   -0.1339   -3.7385 C   0  0  0  0  0  0  0  0  0  0  0  0
    0.7367   -0.0625   -4.8404 O   0  0  0  0  0  0  0  0  0  0  0  0
    2.0154    1.0388   -3.1838 C   0  0  0  0  0  0  0  0  0  0  0  0
    2.8152    0.9641   -2.0485 C   0  0  0  0  0  0  0  0  0  0  0  0
   -1.6617    3.1998   -0.0133 C   0  0  0  0  0  0  0  0  0  0  0  0
   -0.6605    3.3234   -1.1503 C   0  0  0  0  0  0  0  0  0  0  0  0
   -3.0007    2.7384   -0.5653 C   0  0  0  0  0  0  0  0  0  0  0  0
   -1.4883    1.2758    0.7560 H   0  0  0  0  0  0  0  0  0  0  0  0
    0.8150    3.0525    1.0000 H   0  0  0  0  0  0  0  0  0  0  0  0
    2.8700    1.8660    1.0000 H   0  0  0  0  0  0  0  0  0  0  0  0
    2.4552   -1.0331    1.0000 H   0  0  0  0  0  0  0  0  0  0  0  0
    2.5815    0.4801    3.5057 H   0  0  0  0  0  0  0  0  0  0  0  0
    4.0784    0.0448    4.2606 H   0  0  0  0  0  0  0  0  0  0  0  0
    4.6287    0.4065   -0.2411 H   0  0  0  0  0  0  0  0  0  0  0  0
    4.4789   -1.2196   -0.2411 H   0  0  0  0  0  0  0  0  0  0  0  0
    2.8123   -2.3287   -1.6285 H   0  0  0  0  0  0  0  0  0  0  0  0
    1.4328   -2.2093   -3.5851 H   0  0  0  0  0  0  0  0  0  0  0  0
    0.5279    0.8263   -5.2483 H   0  0  0  0  0  0  0  0  0  0  0  0
    1.8040    1.9248   -3.5965 H   0  0  0  0  0  0  0  0  0  0  0  0
    3.1819    1.7996   -1.6392 H   0  0  0  0  0  0  0  0  0  0  0  0
   -1.7728    4.0887    0.4311 H   0  0  0  0  0  0  0  0  0  0  0  0
   -0.9938    3.9901   -1.8170 H   0  0  0  0  0  0  0  0  0  0  0  0
    0.2205    3.6270   -0.7872 H   0  0  0  0  0  0  0  0  0  0  0  0
   -0.5493    2.4345   -1.5947 H   0  0  0  0  0  0  0  0  0  0  0  0
   -3.3340    3.4050   -1.2319 H   0  0  0  0  0  0  0  0  0  0  0  0
   -2.8895    1.8495   -1.0097 H   0  0  0  0  0  0  0  0  0  0  0  0
   -3.6593    2.6570    0.1828 H   0  0  0  0  0  0  0  0  0  0  0  0
  1  2  1  0  0  0  0
  2  3  1  0  0  0  0
  2  4  1  0  0  0  0
  2  5  1  0  0  0  0
  5  6  1  0  0  0  0
  6  7  1  0  0  0  0
  7  8  2  0  0  0  0
  7  9  1  0  0  0  0
  9 10  1  0  0  0  0
 10 11  1  0  0  0  0
 11 12  2  0  0  0  0
 11 13  1  0  0  0  0
 10 14  1  0  0  0  0
 14 15  1  0  0  0  0
 15 16  1  0  0  0  0
 16 17  2  0  0  0  0
 17 18  1  0  0  0  0
 18 19  1  0  0  0  0
 18 20  2  0  0  0  0
 20 21  1  0  0  0  0
 21 15  2  0  0  0  0
  5 22  1  0  0  0  0
 22 23  1  0  0  0  0
 22 24  1  0  0  0  0
  5 25  1  0  0  0  0
  6 26  1  0  0  0  0
  9 27  1  0  0  0  0
 10 28  1  0  0  0  0
 13 29  1  0  0  0  0
 13 30  1  0  0  0  0
 14 31  1  0  0  0  0
 14 32  1  0  0  0  0
 16 33  1  0  0  0  0
 17 34  1  0  0  0  0
 19 35  1  0  0  0  0
 20 36  1  0  0  0  0
 21 37  1  0  0  0  0
 22 38  1  0  0  0  0
 23 39  1  0  0  0  0
 23 40  1  0  0  0  0
 23 41  1  0  0  0  0
 24 42  1  0  0  0  0
 24 43  1  0  0  0  0
 24 44  1  0  0  0  0
M  END
>  <result-rank>
33

>  <similarity>
0.942

>  <query-name>
LIG_A_1101_2_02

>  <query-smiles>
BrC#CCNC(=O)[C@@H](NC(=O)C)Cc1ccc(O)cc1

>  <source>
REALspace_2019-12

>  <similarity-descriptor>
1.000;0.968;0.968;0.934;1.000;0.995;1.000;1.000;0.836;0.836;1.000;1.000;0.286

>  <similarity-descriptor-smiles>
c1ccccc1;FC(F)F;FC(F)F;C;N;C=O;NC;NC;C=O;C=O;C;O;N.C.C.C

>  <reaction-name>
s_2430a

>  <reagent1-name>
10971440

>  <reagent1-smiles>
[R1*]C(=O)NC(C(F)(F)F)C(C)C

>  <reagent2-name>
14422702

>  <reagent2-smiles>
[R1*]NC(C(=O)N)Cc1ccc(O)cc1

$$$$
s_270004____8292504____7548520
          04022015103D 1   1.00000     0.00000     0
            
 32 32  0  0  0  0            999 V2000
    2.2717    1.3060    5.8973 F   0  0  0  0  0  0  0  0  0  0  0  0
    3.4143    1.5620    5.2666 C   0  0  0  0  0  0  0  0  0  0  0  0
    4.0450    0.4194    5.0106 F   0  0  0  0  0  0  0  0  0  0  0  0
    4.1822    2.3299    6.0344 F   0  0  0  0  0  0  0  0  0  0  0  0
    3.1218    2.2828    3.9607 C   0  0  0  0  0  0  0  0  0  0  0  0
    2.2731    1.4341    3.1120 N   0  0  0  0  0  0  0  0  0  0  0  0
    1.8776    1.8776    1.8776 C   0  0  0  0  0  0  0  0  0  0  0  0
    2.2240    2.9588    1.4891 O   0  0  0  0  0  0  0  0  0  0  0  0
    1.0000    1.0000    1.0000 C   0  0  0  0  0  0  0  0  0  0  0  0
    0.7171    1.6971   -0.2629 N   0  3  0  0  0  0  0  0  0  0  0  0
   -0.1316    0.8484   -1.1116 C   0  0  0  0  0  0  0  0  0  0  0  0
   -0.4242    1.5694   -2.4179 C   0  0  0  0  0  0  0  0  0  0  0  0
    0.4259    1.4073   -3.5074 C   0  0  0  0  0  0  0  0  0  0  0  0
    1.5153    0.6140   -3.4216 O   0  0  0  0  0  0  0  0  0  0  0  0
    0.1583    2.0672   -4.7027 C   0  0  0  0  0  0  0  0  0  0  0  0
   -0.9598    2.8888   -4.8084 C   0  0  0  0  0  0  0  0  0  0  0  0
   -1.8099    3.0501   -3.7189 C   0  0  0  0  0  0  0  0  0  0  0  0
   -1.5423    2.3899   -2.5240 C   0  0  0  0  0  0  0  0  0  0  0  0
    0.2429    2.5562   -0.0705 H   0  0  0  0  0  0  0  0  0  0  0  0
    1.5762    1.8895   -0.7371 H   0  0  0  0  0  0  0  0  0  0  0  0
    2.6475    3.1419    4.1532 H   0  0  0  0  0  0  0  0  0  0  0  0
    3.9809    2.4753    3.4865 H   0  0  0  0  0  0  0  0  0  0  0  0
    1.9844    0.5331    3.4357 H   0  0  0  0  0  0  0  0  0  0  0  0
    1.4742    0.1409    0.8075 H   0  0  0  0  0  0  0  0  0  0  0  0
    0.1409    0.8075    1.4742 H   0  0  0  0  0  0  0  0  0  0  0  0
   -0.9907    0.6559   -0.6374 H   0  0  0  0  0  0  0  0  0  0  0  0
    0.3426   -0.0107   -1.3041 H   0  0  0  0  0  0  0  0  0  0  0  0
    2.1184    0.5057   -4.2119 H   0  0  0  0  0  0  0  0  0  0  0  0
    0.7694    1.9511   -5.4857 H   0  0  0  0  0  0  0  0  0  0  0  0
   -1.1523    3.3632   -5.6674 H   0  0  0  0  0  0  0  0  0  0  0  0
   -2.6134    3.6406   -3.7947 H   0  0  0  0  0  0  0  0  0  0  0  0
   -2.1538    2.5053   -1.7413 H   0  0  0  0  0  0  0  0  0  0  0  0
  1  2  1  0  0  0  0
  2  3  1  0  0  0  0
  2  4  1  0  0  0  0
  2  5  1  0  0  0  0
  5  6  1  0  0  0  0
  6  7  1  0  0  0  0
  7  8  2  0  0  0  0
  7  9  1  0  0  0  0
  9 10  1  0  0  0  0
 10 11  1  0  0  0  0
 11 12  1  0  0  0  0
 12 13  1  0  0  0  0
 13 14  1  0  0  0  0
 13 15  2  0  0  0  0
 15 16  1  0  0  0  0
 16 17  2  0  0  0  0
 17 18  1  0  0  0  0
 18 12  2  0  0  0  0
 10 19  1  0  0  0  0
 10 20  1  0  0  0  0
  5 21  1  0  0  0  0
  5 22  1  0  0  0  0
  6 23  1  0  0  0  0
  9 24  1  0  0  0  0
  9 25  1  0  0  0  0
 11 26  1  0  0  0  0
 11 27  1  0  0  0  0
 14 28  1  0  0  0  0
 15 29  1  0  0  0  0
 16 30  1  0  0  0  0
 17 31  1  0  0  0  0
 18 32  1  0  0  0  0
M  CHG  1  10   1
M  END
>  <result-rank>
34

>  <similarity>
0.941

>  <query-name>
LIG_A_1101_2_02

>  <query-smiles>
BrC#CCNC(=O)[C@@H](NC(=O)C)Cc1ccc(O)cc1

>  <source>
REALspace_2019-12

>  <similarity-descriptor>
1.000;0.968;0.968;0.999;1.000;1.000;0.759;0.759;0.0;0.0;0.993;1.000;0.0

>  <similarity-descriptor-smiles>
c1ccccc1;FC(F)F;FC(F)F;C;N;C=O;C[NH2+];C[NH2+];;;C;O;

>  <reaction-name>
s_270004

>  <reagent1-name>
8292504

>  <reagent1-smiles>
[R1*]NCC(=O)NCC(F)(F)F

>  <reagent2-name>
7548520

>  <reagent2-smiles>
[R1*]Cc1c(O)cccc1

$$$$
s_272230____9453608____9453336
          04022015103D 1   1.00000     0.00000     0
            
 32 32  0  0  0  0            999 V2000
    6.2463   -5.4773   -0.6049 F   0  0  0  0  0  0  0  0  0  0  0  0
    5.7058   -4.2647   -0.5196 C   0  0  0  0  0  0  0  0  0  0  0  0
    4.4110   -4.0502   -0.9808 C   0  0  0  0  0  0  0  0  0  0  0  0
    3.8528   -2.7793   -0.8891 C   0  0  0  0  0  0  0  0  0  0  0  0
    4.5945   -1.7397   -0.3381 C   0  0  0  0  0  0  0  0  0  0  0  0
    5.8883   -1.9600    0.1219 C   0  0  0  0  0  0  0  0  0  0  0  0
    6.4515   -3.2287    0.0331 C   0  0  0  0  0  0  0  0  0  0  0  0
    3.9789   -0.3536   -0.2411 C   0  0  0  0  0  0  0  0  0  0  0  0
    3.1050   -0.2731    1.0000 C   0  0  3  0  0  0  0  0  0  0  0  0
    2.3700    1.0000    1.0000 N   0  0  0  0  0  0  0  0  0  0  0  0
    1.0000    1.0000    1.0000 C   0  0  0  0  0  0  0  0  0  0  0  0
    0.4000   -0.0392    1.0000 O   0  0  0  0  0  0  0  0  0  0  0  0
    0.3150    2.1865    1.0000 N   0  0  0  0  0  0  0  0  0  0  0  0
   -1.1550    2.1865    1.0000 C   0  0  0  0  0  0  0  0  0  0  0  0
   -1.6617    3.6195    1.0000 C   0  0  0  0  0  0  0  0  0  0  0  0
   -2.9917    3.6195    1.0000 F   0  0  0  0  0  0  0  0  0  0  0  0
   -1.2183    4.2465    2.0859 F   0  0  0  0  0  0  0  0  0  0  0  0
   -1.2183    4.2465   -0.0859 F   0  0  0  0  0  0  0  0  0  0  0  0
    3.9789   -0.3536    2.2411 C   0  0  0  0  0  0  0  0  0  0  0  0
    4.2678   -1.4315    2.7087 O   0  5  0  0  0  0  0  0  0  0  0  0
    4.3990    0.6938    2.7786 O   0  0  0  0  0  0  0  0  0  0  0  0
    3.8854   -4.8040   -1.3753 H   0  0  0  0  0  0  0  0  0  0  0  0
    2.9229   -2.6140   -1.2177 H   0  0  0  0  0  0  0  0  0  0  0  0
    6.4138   -1.2062    0.5165 H   0  0  0  0  0  0  0  0  0  0  0  0
    7.3811   -3.3939    0.3626 H   0  0  0  0  0  0  0  0  0  0  0  0
    3.4218   -0.1787   -1.0529 H   0  0  0  0  0  0  0  0  0  0  0  0
    4.7058    0.3306   -0.1819 H   0  0  0  0  0  0  0  0  0  0  0  0
    2.4552   -1.0331    1.0000 H   0  0  0  0  0  0  0  0  0  0  0  0
    2.8700    1.8660    1.0000 H   0  0  0  0  0  0  0  0  0  0  0  0
    0.8150    3.0525    1.0000 H   0  0  0  0  0  0  0  0  0  0  0  0
   -1.4883    1.7151    1.8165 H   0  0  0  0  0  0  0  0  0  0  0  0
   -1.4883    1.7151    0.1835 H   0  0  0  0  0  0  0  0  0  0  0  0
  1  2  1  0  0  0  0
  2  3  1  0  0  0  0
  3  4  2  0  0  0  0
  4  5  1  0  0  0  0
  5  6  2  0  0  0  0
  6  7  1  0  0  0  0
  7  2  2  0  0  0  0
  5  8  1  0  0  0  0
  8  9  1  0  0  0  0
  9 10  1  0  0  0  0
 10 11  1  0  0  0  0
 11 12  2  0  0  0  0
 11 13  1  0  0  0  0
 13 14  1  0  0  0  0
 14 15  1  0  0  0  0
 15 16  1  0  0  0  0
 15 17  1  0  0  0  0
 15 18  1  0  0  0  0
  9 19  1  0  0  0  0
 19 20  1  0  0  0  0
 19 21  2  0  0  0  0
  3 22  1  0  0  0  0
  4 23  1  0  0  0  0
  6 24  1  0  0  0  0
  7 25  1  0  0  0  0
  8 26  1  0  0  0  0
  8 27  1  0  0  0  0
  9 28  1  0  0  0  0
 10 29  1  0  0  0  0
 13 30  1  0  0  0  0
 14 31  1  0  0  0  0
 14 32  1  0  0  0  0
M  CHG  1  20  -1
M  END
>  <result-rank>
35

>  <similarity>
0.941

>  <query-name>
LIG_A_1101_2_02

>  <query-smiles>
BrC#CCNC(=O)[C@@H](NC(=O)C)Cc1ccc(O)cc1

>  <source>
REALspace_2019-12

>  <similarity-descriptor>
0.983;0.968;0.968;0.999;1.000;0.995;1.000;1.000;0.733;0.733;1.000;0.0;0.0

>  <similarity-descriptor-smiles>
Fc1ccccc1;C(F)(F)F;C(F)(F)F;C;N;C=O;CN;CN;C([O-])=O;C([O-])=O;C;;

>  <reaction-name>
s_272230

>  <reagent1-name>
9453608

>  <reagent1-smiles>
[R1*]C(=O)NCC(F)(F)F

>  <reagent2-name>
9453336

>  <reagent2-smiles>
[R1*]NC(C(=O)O)Cc1ccc(F)cc1

$$$$
s_2708____11569280____10545754
          04022015103D 1   1.00000     0.00000     0
            
 46 46  0  0  0  0            999 V2000
    6.1492   -5.8235    0.5425 F   0  0  0  0  0  0  0  0  0  0  0  0
    5.7442   -4.5573    0.5908 C   0  0  0  0  0  0  0  0  0  0  0  0
    4.8372   -4.0845   -0.3521 C   0  0  0  0  0  0  0  0  0  0  0  0
    4.4190   -2.7589   -0.2958 C   0  0  0  0  0  0  0  0  0  0  0  0
    4.9115   -1.9233    0.7010 C   0  0  0  0  0  0  0  0  0  0  0  0
    5.8176   -2.4016    1.6414 C   0  0  0  0  0  0  0  0  0  0  0  0
    6.2391   -3.7261    1.5903 C   0  0  0  0  0  0  0  0  0  0  0  0
    4.4506   -0.4762    0.7568 C   0  0  0  0  0  0  0  0  0  0  0  0
    2.9767   -0.4276    1.1249 C   0  0  3  0  0  0  0  0  0  0  0  0
    2.7959   -0.9060    2.5563 C   0  0  0  0  0  0  0  0  0  0  0  0
    3.3385   -0.3261    3.4558 O   0  0  0  0  0  0  0  0  0  0  0  0
    2.0133   -1.9993    2.8194 N   0  0  0  0  0  0  0  0  0  0  0  0
    2.0112   -2.5953    4.1632 C   0  0  0  0  0  0  0  0  0  0  0  0
    1.1759   -2.5764    1.7581 C   0  0  0  0  0  0  0  0  0  0  0  0
    2.4700    1.0000    1.0000 C   0  0  0  0  0  0  0  0  0  0  0  0
    1.0000    1.0000    1.0000 N   0  0  0  0  0  0  0  0  0  0  0  0
    0.3150    1.0000    2.1865 C   0  0  0  0  0  0  0  0  0  0  0  0
    0.8607    1.3554    3.1943 O   0  0  0  0  0  0  0  0  0  0  0  0
   -0.9930    0.5942    2.2222 N   0  0  0  0  0  0  0  0  0  0  0  0
   -1.7280    0.5942    3.4953 C   0  0  0  0  0  0  0  0  0  0  0  0
   -2.4058    1.9409    3.6890 C   0  0  0  0  0  0  0  0  0  0  0  0
   -1.4861    2.9014    3.7081 F   0  0  0  0  0  0  0  0  0  0  0  0
   -3.2536    2.1586    2.6876 F   0  0  0  0  0  0  0  0  0  0  0  0
   -3.1658    1.9409    5.0054 C   0  0  0  0  0  0  0  0  0  0  0  0
    4.4885   -4.6929   -1.0650 H   0  0  0  0  0  0  0  0  0  0  0  0
    3.7674   -2.4086   -0.9687 H   0  0  0  0  0  0  0  0  0  0  0  0
    6.1661   -1.7932    2.3544 H   0  0  0  0  0  0  0  0  0  0  0  0
    6.8899   -4.0764    2.2638 H   0  0  0  0  0  0  0  0  0  0  0  0
    4.5852   -0.0488   -0.1372 H   0  0  0  0  0  0  0  0  0  0  0  0
    4.9826    0.0167    1.4454 H   0  0  0  0  0  0  0  0  0  0  0  0
    2.4592   -1.0202    0.5075 H   0  0  0  0  0  0  0  0  0  0  0  0
    1.3896   -3.3785    4.1794 H   0  0  0  0  0  0  0  0  0  0  0  0
    2.9355   -2.8984    4.3949 H   0  0  0  0  0  0  0  0  0  0  0  0
    1.7068   -1.9144    4.8294 H   0  0  0  0  0  0  0  0  0  0  0  0
    0.6743   -3.3624    2.1195 H   0  0  0  0  0  0  0  0  0  0  0  0
    0.5275   -1.8877    1.4335 H   0  0  0  0  0  0  0  0  0  0  0  0
    1.7562   -2.8717    0.9991 H   0  0  0  0  0  0  0  0  0  0  0  0
    2.8033    1.5408    1.7723 H   0  0  0  0  0  0  0  0  0  0  0  0
    2.8033    1.3984    0.1455 H   0  0  0  0  0  0  0  0  0  0  0  0
    0.5000    1.0000    0.1340 H   0  0  0  0  0  0  0  0  0  0  0  0
   -1.4478    0.2980    1.3823 H   0  0  0  0  0  0  0  0  0  0  0  0
   -1.0906    0.4305    4.2482 H   0  0  0  0  0  0  0  0  0  0  0  0
   -2.4195   -0.1280    3.4810 H   0  0  0  0  0  0  0  0  0  0  0  0
   -3.8573    1.2186    4.9910 H   0  0  0  0  0  0  0  0  0  0  0  0
   -2.5284    1.7771    5.7583 H   0  0  0  0  0  0  0  0  0  0  0  0
   -3.6118    2.8268    5.1328 H   0  0  0  0  0  0  0  0  0  0  0  0
  1  2  1  0  0  0  0
  2  3  1  0  0  0  0
  3  4  2  0  0  0  0
  4  5  1  0  0  0  0
  5  6  2  0  0  0  0
  6  7  1  0  0  0  0
  7  2  2  0  0  0  0
  5  8  1  0  0  0  0
  8  9  1  0  0  0  0
  9 10  1  0  0  0  0
 10 11  2  0  0  0  0
 10 12  1  0  0  0  0
 12 13  1  0  0  0  0
 12 14  1  0  0  0  0
  9 15  1  0  0  0  0
 15 16  1  0  0  0  0
 16 17  1  0  0  0  0
 17 18  2  0  0  0  0
 17 19  1  0  0  0  0
 19 20  1  0  0  0  0
 20 21  1  0  0  0  0
 21 22  1  0  0  0  0
 21 23  1  0  0  0  0
 21 24  1  0  0  0  0
  3 25  1  0  0  0  0
  4 26  1  0  0  0  0
  6 27  1  0  0  0  0
  7 28  1  0  0  0  0
  8 29  1  0  0  0  0
  8 30  1  0  0  0  0
  9 31  1  0  0  0  0
 13 32  1  0  0  0  0
 13 33  1  0  0  0  0
 13 34  1  0  0  0  0
 14 35  1  0  0  0  0
 14 36  1  0  0  0  0
 14 37  1  0  0  0  0
 15 38  1  0  0  0  0
 15 39  1  0  0  0  0
 16 40  1  0  0  0  0
 19 41  1  0  0  0  0
 20 42  1  0  0  0  0
 20 43  1  0  0  0  0
 24 44  1  0  0  0  0
 24 45  1  0  0  0  0
 24 46  1  0  0  0  0
M  END
>  <result-rank>
36

>  <similarity>
0.941

>  <query-name>
LIG_A_1101_2_02

>  <query-smiles>
BrC#CCNC(=O)[C@@H](NC(=O)C)Cc1ccc(O)cc1

>  <source>
REALspace_2019-12

>  <similarity-descriptor>
0.983;0.959;0.939;0.939;1.000;0.995;0.824;0.824;1.000;0.977;1.000;0.0;0.143

>  <similarity-descriptor-smiles>
Fc1ccccc1;C(F)F;C;C;N;C=O;CCN;CCN;C=O;NC;C;;C.C

>  <reaction-name>
s_2708

>  <reagent1-name>
11569280

>  <reagent1-smiles>
[R1*]C(=O)NCC(C(=O)N(C)C)Cc1ccc(F)cc1

>  <reagent2-name>
10545754

>  <reagent2-smiles>
[R1*]NCC(F)(F)C

$$$$
s_22____9291954____220032
          04022015103D 1   1.00000     0.00000     0
            
 37 37  0  0  0  0            999 V2000
    1.7301    0.2657   -2.6418 S   0  0  0  0  0  0  0  0  0  0  0  0
    2.8456    0.2901   -1.3578 C   0  0  0  0  0  0  0  0  0  0  0  0
    3.5319   -0.8836   -1.3934 C   0  0  0  0  0  0  0  0  0  0  0  0
    3.1125   -1.7431   -2.4464 C   0  0  0  0  0  0  0  0  0  0  0  0
    2.1148   -1.2777   -3.2494 C   0  0  0  0  0  0  0  0  0  0  0  0
    3.0267    1.4309   -0.3667 C   0  0  3  0  0  0  0  0  0  0  0  0
    4.4521    1.7778   -0.2739 N   0  0  0  0  0  0  0  0  0  0  0  0
    4.8720    3.0415   -0.5957 C   0  0  0  0  0  0  0  0  0  0  0  0
    4.0761    3.8653   -0.9534 O   0  0  0  0  0  0  0  0  0  0  0  0
    6.3460    3.4001   -0.4997 C   0  0  0  0  0  0  0  0  0  0  0  0
    2.5200    1.0000    1.0000 C   0  0  0  0  0  0  0  0  0  0  0  0
    1.0000    1.0000    1.0000 C   0  0  0  0  0  0  0  0  0  0  0  0
    0.4000    1.0000   -0.0392 O   0  0  0  0  0  0  0  0  0  0  0  0
    0.3150    1.0000    2.1865 N   0  0  0  0  0  0  0  0  0  0  0  0
   -1.1550    1.0000    2.1865 C   0  0  3  0  0  0  0  0  0  0  0  0
   -1.6617    2.2411    2.9030 C   0  0  0  0  0  0  0  0  0  0  0  0
   -2.0583    3.2127    3.4640 C   0  0  0  0  0  0  0  0  0  0  0  0
   -1.6617   -0.2411    2.9030 C   0  0  0  0  0  0  0  0  0  0  0  0
   -3.1817   -0.2411    2.9030 C   0  0  0  0  0  0  0  0  0  0  0  0
    4.2570   -1.1182   -0.7459 H   0  0  0  0  0  0  0  0  0  0  0  0
    3.5278   -2.6414   -2.5898 H   0  0  0  0  0  0  0  0  0  0  0  0
    1.6973   -1.7435   -4.0296 H   0  0  0  0  0  0  0  0  0  0  0  0
    2.5092    2.2281   -0.6779 H   0  0  0  0  0  0  0  0  0  0  0  0
    5.1154    1.0913    0.0242 H   0  0  0  0  0  0  0  0  0  0  0  0
    6.8634    2.6030   -0.1885 H   0  0  0  0  0  0  0  0  0  0  0  0
    6.6793    3.6836   -1.3989 H   0  0  0  0  0  0  0  0  0  0  0  0
    6.4649    4.1497    0.1514 H   0  0  0  0  0  0  0  0  0  0  0  0
    2.8533    0.0795    1.2041 H   0  0  0  0  0  0  0  0  0  0  0  0
    2.8533    1.6370    1.6951 H   0  0  0  0  0  0  0  0  0  0  0  0
    0.8150    1.0000    3.0525 H   0  0  0  0  0  0  0  0  0  0  0  0
   -1.4883    1.0000    1.2436 H   0  0  0  0  0  0  0  0  0  0  0  0
   -2.3917    4.0292    3.9354 H   0  0  0  0  0  0  0  0  0  0  0  0
   -1.3283   -0.2411    3.8458 H   0  0  0  0  0  0  0  0  0  0  0  0
   -1.3283   -1.0576    2.4316 H   0  0  0  0  0  0  0  0  0  0  0  0
   -3.5150   -1.0576    3.3744 H   0  0  0  0  0  0  0  0  0  0  0  0
   -3.5150    0.5754    3.3744 H   0  0  0  0  0  0  0  0  0  0  0  0
   -3.5150   -0.2411    1.9602 H   0  0  0  0  0  0  0  0  0  0  0  0
  1  2  1  0  0  0  0
  2  3  2  0  0  0  0
  3  4  1  0  0  0  0
  4  5  2  0  0  0  0
  5  1  1  0  0  0  0
  2  6  1  0  0  0  0
  6  7  1  0  0  0  0
  7  8  1  0  0  0  0
  8  9  2  0  0  0  0
  8 10  1  0  0  0  0
  6 11  1  0  0  0  0
 11 12  1  0  0  0  0
 12 13  2  0  0  0  0
 12 14  1  0  0  0  0
 14 15  1  0  0  0  0
 15 16  1  0  0  0  0
 16 17  3  0  0  0  0
 15 18  1  0  0  0  0
 18 19  1  0  0  0  0
  3 20  1  0  0  0  0
  4 21  1  0  0  0  0
  5 22  1  0  0  0  0
  6 23  1  0  0  0  0
  7 24  1  0  0  0  0
 10 25  1  0  0  0  0
 10 26  1  0  0  0  0
 10 27  1  0  0  0  0
 11 28  1  0  0  0  0
 11 29  1  0  0  0  0
 14 30  1  0  0  0  0
 15 31  1  0  0  0  0
 17 32  1  0  0  0  0
 18 33  1  0  0  0  0
 18 34  1  0  0  0  0
 19 35  1  0  0  0  0
 19 36  1  0  0  0  0
 19 37  1  0  0  0  0
M  END
>  <result-rank>
37

>  <similarity>
0.940

>  <query-name>
LIG_A_1101_2_02

>  <query-smiles>
BrC#CCNC(=O)[C@@H](NC(=O)C)Cc1ccc(O)cc1

>  <source>
REALspace_2019-12

>  <similarity-descriptor>
0.924;0.911;1.000;0.952;0.952;1.000;1.000;1.000;1.000;1.000;1.000;0.0;0.154

>  <similarity-descriptor-smiles>
S1C=CC=C1;C;C;NC;NC;C=O;CC;N;C=O;C;CC;;C.C

>  <reaction-name>
s_22

>  <reagent1-name>
9291954

>  <reagent1-smiles>
[R1*]NC(C#C)CC

>  <reagent2-name>
220032

>  <reagent2-smiles>
[R1*]C(=O)CC(NC(=O)C)C=1SC=CC1

$$$$
s_22____17505418____3192126
          04022015103D 1   1.00000     0.00000     0
            
 53 53  0  0  0  0            999 V2000
    3.0725    0.2003    0.2003 O   0  0  0  0  0  0  0  0  0  0  0  0
    1.8776    0.1224    0.1224 C   0  0  0  0  0  0  0  0  0  0  0  0
    1.3043   -0.7574   -0.7574 N   0  0  0  0  0  0  0  0  0  0  0  0
    2.1530   -1.6061   -1.6061 C   0  0  0  0  0  0  0  0  0  0  0  0
    3.0306   -0.7286   -2.4837 C   0  0  0  0  0  0  0  0  0  0  0  0
    3.7176   -0.0415   -3.1707 C   0  0  0  0  0  0  0  0  0  0  0  0
    3.0306   -2.4837   -0.7286 C   0  0  0  0  0  0  0  0  0  0  0  0
    3.9082   -3.3613   -1.6061 C   0  0  0  0  0  0  0  0  0  0  0  0
    1.2755   -2.4837   -2.4837 C   0  0  0  0  0  0  0  0  0  0  0  0
    0.3979   -1.6061   -3.3613 C   0  0  0  0  0  0  0  0  0  0  0  0
    1.0000    1.0000    1.0000 C   0  0  0  0  0  0  0  0  0  0  0  0
    1.8776    1.8776    1.8776 C   0  0  3  0  0  0  0  0  0  0  0  0
    1.0289    2.7263    2.7263 N   0  0  0  0  0  0  0  0  0  0  0  0
    1.1178    2.6374    4.0905 C   0  0  0  0  0  0  0  0  0  0  0  0
    1.8884    1.8667    4.5926 O   0  0  0  0  0  0  0  0  0  0  0  0
    0.2402    3.5150    4.9681 C   0  0  0  0  0  0  0  0  0  0  0  0
    2.7554    2.7554    0.9997 C   0  0  0  0  0  0  0  0  0  0  0  0
    4.1409    2.6650    1.0902 C   0  0  0  0  0  0  0  0  0  0  0  0
    4.7223    1.8036    1.9524 O   0  0  0  0  0  0  0  0  0  0  0  0
    6.1379    1.7248    2.0312 C   0  0  0  0  0  0  0  0  0  0  0  0
    6.5305    0.6871    3.0701 C   0  0  0  0  0  0  0  0  0  0  0  0
    4.9443    3.4684    0.2870 C   0  0  0  0  0  0  0  0  0  0  0  0
    4.3619    4.3618   -0.6069 C   0  0  0  0  0  0  0  0  0  0  0  0
    2.9764    4.4513   -0.6974 C   0  0  0  0  0  0  0  0  0  0  0  0
    2.1734    3.6478    0.1055 C   0  0  0  0  0  0  0  0  0  0  0  0
    0.3085   -0.8223   -0.8223 H   0  0  0  0  0  0  0  0  0  0  0  0
    4.2950    0.5358   -3.7481 H   0  0  0  0  0  0  0  0  0  0  0  0
    2.4532   -3.0611   -0.1512 H   0  0  0  0  0  0  0  0  0  0  0  0
    3.6079   -1.9064   -0.1512 H   0  0  0  0  0  0  0  0  0  0  0  0
    4.4855   -3.9386   -1.0288 H   0  0  0  0  0  0  0  0  0  0  0  0
    3.3308   -3.9386   -2.1835 H   0  0  0  0  0  0  0  0  0  0  0  0
    4.4855   -2.7839   -2.1835 H   0  0  0  0  0  0  0  0  0  0  0  0
    0.6981   -3.0611   -1.9064 H   0  0  0  0  0  0  0  0  0  0  0  0
    1.8528   -3.0611   -3.0611 H   0  0  0  0  0  0  0  0  0  0  0  0
   -0.1795   -2.1835   -3.9386 H   0  0  0  0  0  0  0  0  0  0  0  0
   -0.1795   -1.0288   -2.7839 H   0  0  0  0  0  0  0  0  0  0  0  0
    0.9752   -1.0288   -3.9386 H   0  0  0  0  0  0  0  0  0  0  0  0
    0.4226    0.4226    1.5774 H   0  0  0  0  0  0  0  0  0  0  0  0
    0.4226    1.5774    0.4226 H   0  0  0  0  0  0  0  0  0  0  0  0
    2.4549    1.3002    2.4549 H   0  0  0  0  0  0  0  0  0  0  0  0
    0.3866    3.3685    2.3078 H   0  0  0  0  0  0  0  0  0  0  0  0
   -0.3372    4.0923    4.3907 H   0  0  0  0  0  0  0  0  0  0  0  0
   -0.3372    2.9376    5.5454 H   0  0  0  0  0  0  0  0  0  0  0  0
    0.8175    4.0923    5.5454 H   0  0  0  0  0  0  0  0  0  0  0  0
    6.5072    2.6161    2.2942 H   0  0  0  0  0  0  0  0  0  0  0  0
    6.5071    1.4608    1.1402 H   0  0  0  0  0  0  0  0  0  0  0  0
    7.5275    0.6316    3.1256 H   0  0  0  0  0  0  0  0  0  0  0  0
    6.1613    0.9511    3.9611 H   0  0  0  0  0  0  0  0  0  0  0  0
    6.1612   -0.2042    2.8071 H   0  0  0  0  0  0  0  0  0  0  0  0
    5.9401    3.4039    0.3522 H   0  0  0  0  0  0  0  0  0  0  0  0
    4.9391    4.9393   -1.1841 H   0  0  0  0  0  0  0  0  0  0  0  0
    2.5578    5.0934   -1.3397 H   0  0  0  0  0  0  0  0  0  0  0  0
    1.1777    3.7117    0.0398 H   0  0  0  0  0  0  0  0  0  0  0  0
  1  2  2  0  0  0  0
  2  3  1  0  0  0  0
  3  4  1  0  0  0  0
  4  5  1  0  0  0  0
  5  6  3  0  0  0  0
  4  7  1  0  0  0  0
  7  8  1  0  0  0  0
  4  9  1  0  0  0  0
  9 10  1  0  0  0  0
  2 11  1  0  0  0  0
 11 12  1  0  0  0  0
 12 13  1  0  0  0  0
 13 14  1  0  0  0  0
 14 15  2  0  0  0  0
 14 16  1  0  0  0  0
 12 17  1  0  0  0  0
 17 18  1  0  0  0  0
 18 19  1  0  0  0  0
 19 20  1  0  0  0  0
 20 21  1  0  0  0  0
 18 22  2  0  0  0  0
 22 23  1  0  0  0  0
 23 24  2  0  0  0  0
 24 25  1  0  0  0  0
 25 17  2  0  0  0  0
  3 26  1  0  0  0  0
  6 27  1  0  0  0  0
  7 28  1  0  0  0  0
  7 29  1  0  0  0  0
  8 30  1  0  0  0  0
  8 31  1  0  0  0  0
  8 32  1  0  0  0  0
  9 33  1  0  0  0  0
  9 34  1  0  0  0  0
 10 35  1  0  0  0  0
 10 36  1  0  0  0  0
 10 37  1  0  0  0  0
 11 38  1  0  0  0  0
 11 39  1  0  0  0  0
 12 40  1  0  0  0  0
 13 41  1  0  0  0  0
 16 42  1  0  0  0  0
 16 43  1  0  0  0  0
 16 44  1  0  0  0  0
 20 45  1  0  0  0  0
 20 46  1  0  0  0  0
 21 47  1  0  0  0  0
 21 48  1  0  0  0  0
 21 49  1  0  0  0  0
 22 50  1  0  0  0  0
 23 51  1  0  0  0  0
 24 52  1  0  0  0  0
 25 53  1  0  0  0  0
M  END
>  <result-rank>
38

>  <similarity>
0.940

>  <query-name>
LIG_A_1101_2_02

>  <query-smiles>
BrC#CCNC(=O)[C@@H](NC(=O)C)Cc1ccc(O)cc1

>  <source>
REALspace_2019-12

>  <similarity-descriptor>
1.000;0.911;0.978;0.978;1.000;1.000;1.000;1.000;1.000;1.000;1.000;0.704;0.278

>  <similarity-descriptor-smiles>
c1ccccc1;C;C(C)C;C(C)C;N;O=C;CC;N;C=O;C;CC;O;C.C.C.C.C

>  <reaction-name>
s_22

>  <reagent1-name>
17505418

>  <reagent1-smiles>
[R1*]NC(C#C)(CC)CC

>  <reagent2-name>
3192126

>  <reagent2-smiles>
[R1*]C(=O)CC(NC(=O)C)c1c(OCC)cccc1

$$$$
s_2430a____11944322____7963962
          04022015103D 1   1.00000     0.00000     0
            
 41 42  0  0  0  0            999 V2000
    4.4025    3.9394   -3.4369 Br  0  0  0  0  0  0  0  0  0  0  0  0
    4.9753    3.1239   -1.7494 C   0  0  0  0  0  0  0  0  0  0  0  0
    4.5382    1.8456   -1.4198 C   0  0  0  0  0  0  0  0  0  0  0  0
    4.9532    1.2808   -0.2177 C   0  0  0  0  0  0  0  0  0  0  0  0
    5.7918    1.9749    0.6479 C   0  0  0  0  0  0  0  0  0  0  0  0
    6.2167    3.2526    0.2989 C   0  0  0  0  0  0  0  0  0  0  0  0
    5.8138    3.8356   -0.8980 C   0  0  0  0  0  0  0  0  0  0  0  0
    4.4778   -0.1165    0.1463 C   0  0  3  0  0  0  0  0  0  0  0  0
    3.0721   -0.1427    0.5841 N   0  0  0  0  0  0  0  0  0  0  0  0
    2.3700    1.0000    1.0000 C   0  0  0  0  0  0  0  0  0  0  0  0
    2.9700    1.9766    1.3554 O   0  0  0  0  0  0  0  0  0  0  0  0
    1.0000    1.0000    1.0000 N   0  0  0  0  0  0  0  0  0  0  0  0
    0.2650    2.2731    1.0000 C   0  0  0  0  0  0  0  0  0  0  0  0
   -1.2294    1.9953    1.0000 C   0  0  0  0  0  0  0  0  0  0  0  0
   -1.8944    3.1471    1.0000 F   0  0  0  0  0  0  0  0  0  0  0  0
   -1.5507    1.2979   -0.0859 F   0  0  0  0  0  0  0  0  0  0  0  0
   -1.5507    1.2979    2.0859 F   0  0  0  0  0  0  0  0  0  0  0  0
    0.6322    3.0701    2.2411 C   0  0  0  0  0  0  0  0  0  0  0  0
    0.6322    3.0701   -0.2411 C   0  0  0  0  0  0  0  0  0  0  0  0
    2.4785   -1.4875    0.5746 C   0  0  0  0  0  0  0  0  0  0  0  0
    2.4190   -2.0232   -0.8471 C   0  0  0  0  0  0  0  0  0  0  0  0
    3.7270   -1.8970   -1.5084 N   0  0  0  0  0  0  0  0  0  0  0  0
    4.7115   -0.9991   -1.0762 C   0  0  0  0  0  0  0  0  0  0  0  0
    5.7482   -0.9196   -1.7168 O   0  0  0  0  0  0  0  0  0  0  0  0
    3.9351    1.3403   -2.0369 H   0  0  0  0  0  0  0  0  0  0  0  0
    6.0853    1.5609    1.5095 H   0  0  0  0  0  0  0  0  0  0  0  0
    6.8195    3.7583    0.9161 H   0  0  0  0  0  0  0  0  0  0  0  0
    6.1229    4.7545   -1.1431 H   0  0  0  0  0  0  0  0  0  0  0  0
    5.0469   -0.4578    0.8944 H   0  0  0  0  0  0  0  0  0  0  0  0
    0.5000    0.1340    1.0000 H   0  0  0  0  0  0  0  0  0  0  0  0
    0.1322    3.9361    2.2411 H   0  0  0  0  0  0  0  0  0  0  0  0
    0.3906    2.5457    3.0576 H   0  0  0  0  0  0  0  0  0  0  0  0
    1.6154    3.2528    2.2411 H   0  0  0  0  0  0  0  0  0  0  0  0
    0.1322    3.9361   -0.2411 H   0  0  0  0  0  0  0  0  0  0  0  0
    1.6154    3.2528   -0.2411 H   0  0  0  0  0  0  0  0  0  0  0  0
    0.3906    2.5457   -1.0576 H   0  0  0  0  0  0  0  0  0  0  0  0
    1.5527   -1.4429    0.9501 H   0  0  0  0  0  0  0  0  0  0  0  0
    3.0365   -2.0992    1.1353 H   0  0  0  0  0  0  0  0  0  0  0  0
    2.1555   -2.9876   -0.8232 H   0  0  0  0  0  0  0  0  0  0  0  0
    1.7386   -1.5044   -1.3646 H   0  0  0  0  0  0  0  0  0  0  0  0
    3.9216   -2.4766   -2.2997 H   0  0  0  0  0  0  0  0  0  0  0  0
  1  2  1  0  0  0  0
  2  3  1  0  0  0  0
  3  4  2  0  0  0  0
  4  5  1  0  0  0  0
  5  6  2  0  0  0  0
  6  7  1  0  0  0  0
  7  2  2  0  0  0  0
  4  8  1  0  0  0  0
  8  9  1  0  0  0  0
  9 10  1  0  0  0  0
 10 11  2  0  0  0  0
 10 12  1  0  0  0  0
 12 13  1  0  0  0  0
 13 14  1  0  0  0  0
 14 15  1  0  0  0  0
 14 16  1  0  0  0  0
 14 17  1  0  0  0  0
 13 18  1  0  0  0  0
 13 19  1  0  0  0  0
  9 20  1  0  0  0  0
 20 21  1  0  0  0  0
 21 22  1  0  0  0  0
 22 23  1  0  0  0  0
 23  8  1  0  0  0  0
 23 24  2  0  0  0  0
  3 25  1  0  0  0  0
  5 26  1  0  0  0  0
  6 27  1  0  0  0  0
  7 28  1  0  0  0  0
  8 29  1  0  0  0  0
 12 30  1  0  0  0  0
 18 31  1  0  0  0  0
 18 32  1  0  0  0  0
 18 33  1  0  0  0  0
 19 34  1  0  0  0  0
 19 35  1  0  0  0  0
 19 36  1  0  0  0  0
 20 37  1  0  0  0  0
 20 38  1  0  0  0  0
 21 39  1  0  0  0  0
 21 40  1  0  0  0  0
 22 41  1  0  0  0  0
M  END
>  <result-rank>
39

>  <similarity>
0.940

>  <query-name>
LIG_A_1101_2_02

>  <query-smiles>
BrC#CCNC(=O)[C@@H](NC(=O)C)Cc1ccc(O)cc1

>  <source>
REALspace_2019-12

>  <similarity-descriptor>
0.962;0.990;0.988;0.988;1.000;0.995;0.897;0.897;0.897;0.897;0.897;0.0;0.125

>  <similarity-descriptor-smiles>
Brc1ccccc1;C(F)(F)F;CC;CC;N;C=O;C1C(NCCN1)=O;C1C(NCCN1)=O;C1C(NCCN1)=O;C1C(NCCN1)=O;C1C(NCCN1)=O;;C

>  <reaction-name>
s_2430a

>  <reagent1-name>
11944322

>  <reagent1-smiles>
[R1*]C(=O)NC(C(F)(F)F)(C)C

>  <reagent2-name>
7963962

>  <reagent2-smiles>
[R1*]N1C(c2cc(Br)ccc2)C(=O)NCC1

$$$$
s_22____6914294____8850186
          04022015103D 1   1.00000     0.00000     0
            
 33 33  0  0  0  0            999 V2000
    6.5117    0.1041    3.4615 F   0  0  0  0  0  0  0  0  0  0  0  0
    5.1817    0.1041    3.4615 C   0  0  0  0  0  0  0  0  0  0  0  0
    4.7383    0.9101    4.4221 F   0  0  0  0  0  0  0  0  0  0  0  0
    4.7383   -1.1308    3.6793 F   0  0  0  0  0  0  0  0  0  0  0  0
    4.6750    0.5942    2.1149 C   0  0  0  0  0  0  0  0  0  0  0  0
    3.2050    0.5942    2.1149 N   0  0  0  0  0  0  0  0  0  0  0  0
    2.5200    1.0000    1.0000 C   0  0  0  0  0  0  0  0  0  0  0  0
    3.1200    1.3554    0.0234 O   0  0  0  0  0  0  0  0  0  0  0  0
    1.0000    1.0000    1.0000 C   0  0  0  0  0  0  0  0  0  0  0  0
    0.4000   -0.0392    1.0000 O   0  0  0  0  0  0  0  0  0  0  0  0
    0.3150    2.1865    1.0000 N   0  0  0  0  0  0  0  0  0  0  0  0
   -1.1550    2.1865    1.0000 C   0  0  0  0  0  0  0  0  0  0  0  0
   -1.6617    2.4353    2.4113 C   0  0  0  0  0  0  0  0  0  0  0  0
   -1.8898    3.7399    2.8365 C   0  0  0  0  0  0  0  0  0  0  0  0
   -2.3541    3.9724    4.1268 C   0  0  0  0  0  0  0  0  0  0  0  0
   -2.5852    2.8953    4.9765 C   0  0  0  0  0  0  0  0  0  0  0  0
   -3.0355    3.1164    6.2297 O   0  0  0  0  0  0  0  0  0  0  0  0
   -2.3584    1.5886    4.5564 C   0  0  0  0  0  0  0  0  0  0  0  0
   -1.8944    1.3619    3.2650 C   0  0  0  0  0  0  0  0  0  0  0  0
    1.0500    3.4595    1.0000 C   0  0  0  0  0  0  0  0  0  0  0  0
    5.0083    1.5227    1.9512 H   0  0  0  0  0  0  0  0  0  0  0  0
    5.0083   -0.0118    1.3927 H   0  0  0  0  0  0  0  0  0  0  0  0
    2.7050    0.2980    2.9287 H   0  0  0  0  0  0  0  0  0  0  0  0
   -1.4883    1.3005    0.6775 H   0  0  0  0  0  0  0  0  0  0  0  0
   -1.4883    2.9087    0.3940 H   0  0  0  0  0  0  0  0  0  0  0  0
   -1.7208    4.5069    2.2175 H   0  0  0  0  0  0  0  0  0  0  0  0
   -2.5207    4.9069    4.4414 H   0  0  0  0  0  0  0  0  0  0  0  0
   -3.2031    2.3454    6.8441 H   0  0  0  0  0  0  0  0  0  0  0  0
   -2.5268    0.8216    5.1755 H   0  0  0  0  0  0  0  0  0  0  0  0
   -1.7282    0.4274    2.9502 H   0  0  0  0  0  0  0  0  0  0  0  0
    0.4002    4.2196    1.0000 H   0  0  0  0  0  0  0  0  0  0  0  0
    1.6249    3.5125    1.8165 H   0  0  0  0  0  0  0  0  0  0  0  0
    1.6249    3.5125    0.1835 H   0  0  0  0  0  0  0  0  0  0  0  0
  1  2  1  0  0  0  0
  2  3  1  0  0  0  0
  2  4  1  0  0  0  0
  2  5  1  0  0  0  0
  5  6  1  0  0  0  0
  6  7  1  0  0  0  0
  7  8  2  0  0  0  0
  7  9  1  0  0  0  0
  9 10  2  0  0  0  0
  9 11  1  0  0  0  0
 11 12  1  0  0  0  0
 12 13  1  0  0  0  0
 13 14  1  0  0  0  0
 14 15  2  0  0  0  0
 15 16  1  0  0  0  0
 16 17  1  0  0  0  0
 16 18  2  0  0  0  0
 18 19  1  0  0  0  0
 19 13  2  0  0  0  0
 11 20  1  0  0  0  0
  5 21  1  0  0  0  0
  5 22  1  0  0  0  0
  6 23  1  0  0  0  0
 12 24  1  0  0  0  0
 12 25  1  0  0  0  0
 14 26  1  0  0  0  0
 15 27  1  0  0  0  0
 17 28  1  0  0  0  0
 18 29  1  0  0  0  0
 19 30  1  0  0  0  0
 20 31  1  0  0  0  0
 20 32  1  0  0  0  0
 20 33  1  0  0  0  0
M  END
>  <result-rank>
40

>  <similarity>
0.940

>  <query-name>
LIG_A_1101_2_02

>  <query-smiles>
BrC#CCNC(=O)[C@@H](NC(=O)C)Cc1ccc(O)cc1

>  <source>
REALspace_2019-12

>  <similarity-descriptor>
1.000;0.968;0.968;0.999;1.000;0.999;0.768;0.768;0.768;0.0;0.969;1.000;0.100

>  <similarity-descriptor-smiles>
c1ccccc1;FC(F)F;FC(F)F;C;N;C=O;C=O;C=O;C=O;;NC;O;C

>  <reaction-name>
s_22

>  <reagent1-name>
6914294

>  <reagent1-smiles>
[R1*]N(Cc1ccc(O)cc1)C

>  <reagent2-name>
8850186

>  <reagent2-smiles>
[R1*]C(=O)C(=O)NCC(F)(F)F

$$$$
s_270062____16412582____15585492
          04022015103D 1   1.00000     0.00000     0
            
 32 32  0  0  0  0            999 V2000
    0.2321    1.9873    3.5230 F   0  0  0  0  0  0  0  0  0  0  0  0
    1.0000    2.7551    2.7551 C   0  0  0  0  0  0  0  0  0  0  0  0
    1.7679    3.5230    3.5230 F   0  0  0  0  0  0  0  0  0  0  0  0
    1.8776    1.8776    1.8776 C   0  0  3  0  0  0  0  0  0  0  0  0
    2.6974    1.0577    2.6974 O   0  0  0  0  0  0  0  0  0  0  0  0
    1.0000    1.0000    1.0000 C   0  0  3  0  0  0  0  0  0  0  0  0
    1.8487    0.1513    0.1513 N   0  0  0  0  0  0  0  0  0  0  0  0
    1.7598   -1.2129    0.2402 C   0  0  0  0  0  0  0  0  0  0  0  0
    0.9891   -1.7150    1.0109 O   0  0  0  0  0  0  0  0  0  0  0  0
    2.6374   -2.0905   -0.6374 C   0  0  0  0  0  0  0  0  0  0  0  0
    0.1224    1.8776    0.1224 C   0  0  0  0  0  0  0  0  0  0  0  0
   -0.7553    0.9998   -0.7553 C   0  0  0  0  0  0  0  0  0  0  0  0
   -2.0076    0.6020   -0.2987 C   0  0  0  0  0  0  0  0  0  0  0  0
   -2.8072   -0.2018   -1.1047 C   0  0  0  0  0  0  0  0  0  0  0  0
   -2.3534   -0.6007   -2.3575 C   0  0  0  0  0  0  0  0  0  0  0  0
   -1.1009   -0.1969   -2.8035 C   0  0  0  0  0  0  0  0  0  0  0  0
   -0.2917    0.6064   -2.0067 C   0  0  0  0  0  0  0  0  0  0  0  0
    0.4226    3.3325    2.1778 H   0  0  0  0  0  0  0  0  0  0  0  0
    2.4549    2.4549    1.3002 H   0  0  0  0  0  0  0  0  0  0  0  0
    3.2748    1.6351    3.2748 H   0  0  0  0  0  0  0  0  0  0  0  0
    0.4226    0.4226    1.5774 H   0  0  0  0  0  0  0  0  0  0  0  0
    2.4909    0.5697   -0.4909 H   0  0  0  0  0  0  0  0  0  0  0  0
    3.2147   -1.5131   -1.2147 H   0  0  0  0  0  0  0  0  0  0  0  0
    3.2147   -2.6678   -0.0600 H   0  0  0  0  0  0  0  0  0  0  0  0
    2.0600   -2.6678   -1.2147 H   0  0  0  0  0  0  0  0  0  0  0  0
   -0.4549    2.4549    0.6998 H   0  0  0  0  0  0  0  0  0  0  0  0
    0.6998    2.4549   -0.4549 H   0  0  0  0  0  0  0  0  0  0  0  0
   -2.3306    0.8917    0.6023 H   0  0  0  0  0  0  0  0  0  0  0  0
   -3.7083   -0.4929   -0.7833 H   0  0  0  0  0  0  0  0  0  0  0  0
   -2.9284   -1.1781   -2.9372 H   0  0  0  0  0  0  0  0  0  0  0  0
   -0.7786   -0.4861   -3.7048 H   0  0  0  0  0  0  0  0  0  0  0  0
    0.6096    0.8966   -2.3284 H   0  0  0  0  0  0  0  0  0  0  0  0
  1  2  1  0  0  0  0
  2  3  1  0  0  0  0
  2  4  1  0  0  0  0
  4  5  1  0  0  0  0
  4  6  1  0  0  0  0
  6  7  1  0  0  0  0
  7  8  1  0  0  0  0
  8  9  2  0  0  0  0
  8 10  1  0  0  0  0
  6 11  1  0  0  0  0
 11 12  1  0  0  0  0
 12 13  1  0  0  0  0
 13 14  2  0  0  0  0
 14 15  1  0  0  0  0
 15 16  2  0  0  0  0
 16 17  1  0  0  0  0
 17 12  2  0  0  0  0
  2 18  1  0  0  0  0
  4 19  1  0  0  0  0
  5 20  1  0  0  0  0
  6 21  1  0  0  0  0
  7 22  1  0  0  0  0
 10 23  1  0  0  0  0
 10 24  1  0  0  0  0
 10 25  1  0  0  0  0
 11 26  1  0  0  0  0
 11 27  1  0  0  0  0
 13 28  1  0  0  0  0
 14 29  1  0  0  0  0
 15 30  1  0  0  0  0
 16 31  1  0  0  0  0
 17 32  1  0  0  0  0
M  END
>  <result-rank>
41

>  <similarity>
0.940

>  <query-name>
LIG_A_1101_2_02

>  <query-smiles>
BrC#CCNC(=O)[C@@H](NC(=O)C)Cc1ccc(O)cc1

>  <source>
REALspace_2019-12

>  <similarity-descriptor>
0.960;0.901;0.901;0.901;0.856;0.856;1.000;1.000;1.000;1.000;1.000;0.0;0.0

>  <similarity-descriptor-smiles>
c1ccccc1;FCF;FCF;FCF;CO;CO;CC;N;C=O;C;CC;;

>  <reaction-name>
s_270062

>  <reagent1-name>
16412582

>  <reagent1-smiles>
[R1*]NC(C(O)C(F)F)Cc1ccccc1

>  <reagent2-name>
15585492

>  <reagent2-smiles>
[R1*]C(=O)C

$$$$
s_2430a____11944322____13611208
          04022015103D 1   1.00000     0.00000     0
            
 43 43  0  0  0  0            999 V2000
   -2.9556    2.5699    5.5897 F   0  0  0  0  0  0  0  0  0  0  0  0
   -2.1899    2.4980    4.5043 C   0  0  0  0  0  0  0  0  0  0  0  0
   -0.8453    2.1631    4.6269 C   0  0  0  0  0  0  0  0  0  0  0  0
   -0.0505    2.0908    3.4874 C   0  0  0  0  0  0  0  0  0  0  0  0
   -0.6088    2.3536    2.2409 C   0  0  0  0  0  0  0  0  0  0  0  0
   -1.9538    2.6873    2.1242 C   0  0  0  0  0  0  0  0  0  0  0  0
   -2.7533    2.7608    3.2599 C   0  0  0  0  0  0  0  0  0  0  0  0
    0.2650    2.2731    1.0000 C   0  0  3  0  0  0  0  0  0  0  0  0
    1.0000    1.0000    1.0000 N   0  0  0  0  0  0  0  0  0  0  0  0
    2.3700    1.0000    1.0000 C   0  0  0  0  0  0  0  0  0  0  0  0
    2.9700    2.0392    1.0000 O   0  0  0  0  0  0  0  0  0  0  0  0
    3.0550   -0.1865    1.0000 N   0  0  0  0  0  0  0  0  0  0  0  0
    4.5250   -0.1865    1.0000 C   0  0  0  0  0  0  0  0  0  0  0  0
    5.0317   -1.6195    1.0000 C   0  0  0  0  0  0  0  0  0  0  0  0
    6.3617   -1.6195    1.0000 F   0  0  0  0  0  0  0  0  0  0  0  0
    4.5883   -2.2465    2.0859 F   0  0  0  0  0  0  0  0  0  0  0  0
    4.5883   -2.2465   -0.0859 F   0  0  0  0  0  0  0  0  0  0  0  0
    5.0317    0.5301   -0.2411 C   0  0  0  0  0  0  0  0  0  0  0  0
    5.0317    0.5301    2.2411 C   0  0  0  0  0  0  0  0  0  0  0  0
    0.2650   -0.2731    1.0000 C   0  0  0  0  0  0  0  0  0  0  0  0
   -0.6089    2.3536   -0.2411 C   0  0  0  0  0  0  0  0  0  0  0  0
    0.2075    2.2784   -1.4005 O   0  0  0  0  0  0  0  0  0  0  0  0
   -0.6089    2.3536   -2.5599 C   0  0  0  0  0  0  0  0  0  0  0  0
   -0.4529    1.9758    5.5274 H   0  0  0  0  0  0  0  0  0  0  0  0
    0.9173    1.8512    3.5642 H   0  0  0  0  0  0  0  0  0  0  0  0
   -2.3461    2.8745    1.2236 H   0  0  0  0  0  0  0  0  0  0  0  0
   -3.7213    2.9996    3.1828 H   0  0  0  0  0  0  0  0  0  0  0  0
    0.9148    3.0331    1.0000 H   0  0  0  0  0  0  0  0  0  0  0  0
    2.5550   -1.0525    1.0000 H   0  0  0  0  0  0  0  0  0  0  0  0
    6.0317    0.5301   -0.2411 H   0  0  0  0  0  0  0  0  0  0  0  0
    4.6983    0.0587   -1.0576 H   0  0  0  0  0  0  0  0  0  0  0  0
    4.6983    1.4729   -0.2411 H   0  0  0  0  0  0  0  0  0  0  0  0
    6.0317    0.5301    2.2411 H   0  0  0  0  0  0  0  0  0  0  0  0
    4.6983    1.4729    2.2411 H   0  0  0  0  0  0  0  0  0  0  0  0
    4.6983    0.0587    3.0576 H   0  0  0  0  0  0  0  0  0  0  0  0
   -0.7182   -0.0903    1.0000 H   0  0  0  0  0  0  0  0  0  0  0  0
    0.5066   -0.7974    0.1835 H   0  0  0  0  0  0  0  0  0  0  0  0
    0.5066   -0.7974    1.8165 H   0  0  0  0  0  0  0  0  0  0  0  0
   -1.2587    1.5935   -0.2411 H   0  0  0  0  0  0  0  0  0  0  0  0
   -1.1089    3.2196   -0.2411 H   0  0  0  0  0  0  0  0  0  0  0  0
   -0.0340    2.3006   -3.3764 H   0  0  0  0  0  0  0  0  0  0  0  0
   -1.2587    1.5935   -2.5599 H   0  0  0  0  0  0  0  0  0  0  0  0
   -1.1089    3.2196   -2.5599 H   0  0  0  0  0  0  0  0  0  0  0  0
  1  2  1  0  0  0  0
  2  3  1  0  0  0  0
  3  4  2  0  0  0  0
  4  5  1  0  0  0  0
  5  6  2  0  0  0  0
  6  7  1  0  0  0  0
  7  2  2  0  0  0  0
  5  8  1  0  0  0  0
  8  9  1  0  0  0  0
  9 10  1  0  0  0  0
 10 11  2  0  0  0  0
 10 12  1  0  0  0  0
 12 13  1  0  0  0  0
 13 14  1  0  0  0  0
 14 15  1  0  0  0  0
 14 16  1  0  0  0  0
 14 17  1  0  0  0  0
 13 18  1  0  0  0  0
 13 19  1  0  0  0  0
  9 20  1  0  0  0  0
  8 21  1  0  0  0  0
 21 22  1  0  0  0  0
 22 23  1  0  0  0  0
  3 24  1  0  0  0  0
  4 25  1  0  0  0  0
  6 26  1  0  0  0  0
  7 27  1  0  0  0  0
  8 28  1  0  0  0  0
 12 29  1  0  0  0  0
 18 30  1  0  0  0  0
 18 31  1  0  0  0  0
 18 32  1  0  0  0  0
 19 33  1  0  0  0  0
 19 34  1  0  0  0  0
 19 35  1  0  0  0  0
 20 36  1  0  0  0  0
 20 37  1  0  0  0  0
 20 38  1  0  0  0  0
 21 39  1  0  0  0  0
 21 40  1  0  0  0  0
 23 41  1  0  0  0  0
 23 42  1  0  0  0  0
 23 43  1  0  0  0  0
M  END
>  <result-rank>
42

>  <similarity>
0.939

>  <query-name>
LIG_A_1101_2_02

>  <query-smiles>
BrC#CCNC(=O)[C@@H](NC(=O)C)Cc1ccc(O)cc1

>  <source>
REALspace_2019-12

>  <similarity-descriptor>
0.983;0.990;0.988;0.988;1.000;0.995;0.951;0.735;0.735;0.994;0.951;0.0;0.077

>  <similarity-descriptor-smiles>
Fc1ccccc1;C(F)(F)F;CC;CC;N;C=O;CNC;CO;CO;C;CNC;;C

>  <reaction-name>
s_2430a

>  <reagent1-name>
11944322

>  <reagent1-smiles>
[R1*]C(=O)NC(C(F)(F)F)(C)C

>  <reagent2-name>
13611208

>  <reagent2-smiles>
[R1*]N(C(c1ccc(F)cc1)COC)C

$$$$
s_272164____14971778____9388244
          04022015103D 1   1.00000     0.00000     0
            
 39 39  0  0  0  0            999 V2000
    2.9700    2.0392    1.0000 O   0  0  0  0  0  0  0  0  0  0  0  0
    2.3700    1.0000    1.0000 C   0  0  0  0  0  0  0  0  0  0  0  0
    3.0550   -0.1865    1.0000 N   0  0  0  0  0  0  0  0  0  0  0  0
    4.5250   -0.1865    1.0000 C   0  0  0  0  0  0  0  0  0  0  0  0
    5.0317   -0.1865    2.4331 C   0  0  0  0  0  0  0  0  0  0  0  0
    5.4283   -0.1865    3.5550 C   0  0  0  0  0  0  0  0  0  0  0  0
    2.3200   -1.4595    1.0000 C   0  0  0  0  0  0  0  0  0  0  0  0
    1.0000    1.0000    1.0000 N   0  0  0  0  0  0  0  0  0  0  0  0
    0.2650    2.2731    1.0000 C   0  0  3  0  0  0  0  0  0  0  0  0
   -0.6089    2.3536   -0.2411 C   0  0  0  0  0  0  0  0  0  0  0  0
   -0.7132    3.3910   -0.8352 O   0  0  0  0  0  0  0  0  0  0  0  0
   -1.2774    1.2418   -0.6814 N   0  0  0  0  0  0  0  0  0  0  0  0
   -2.1225    1.3197   -1.8817 C   0  0  0  0  0  0  0  0  0  0  0  0
   -0.6089    2.3536    2.2411 C   0  0  0  0  0  0  0  0  0  0  0  0
   -1.3690    3.6702    2.2411 C   0  0  0  0  0  0  0  0  0  0  0  0
   -2.6198    3.7437    1.6369 C   0  0  0  0  0  0  0  0  0  0  0  0
   -3.3116    4.9506    1.6384 C   0  0  0  0  0  0  0  0  0  0  0  0
   -2.7525    6.0720    2.2423 C   0  0  0  0  0  0  0  0  0  0  0  0
   -1.5027    5.9867    2.8431 C   0  0  0  0  0  0  0  0  0  0  0  0
   -0.8006    4.7858    2.8477 C   0  0  0  0  0  0  0  0  0  0  0  0
    4.8583    0.6300    0.5286 H   0  0  0  0  0  0  0  0  0  0  0  0
    4.8583   -1.0030    0.5286 H   0  0  0  0  0  0  0  0  0  0  0  0
    5.7617   -0.1865    4.4978 H   0  0  0  0  0  0  0  0  0  0  0  0
    2.9698   -2.2196    1.0000 H   0  0  0  0  0  0  0  0  0  0  0  0
    1.7451   -1.5125    1.8165 H   0  0  0  0  0  0  0  0  0  0  0  0
    1.7451   -1.5125    0.1835 H   0  0  0  0  0  0  0  0  0  0  0  0
    0.5000    0.1340    1.0000 H   0  0  0  0  0  0  0  0  0  0  0  0
    0.9148    3.0331    1.0000 H   0  0  0  0  0  0  0  0  0  0  0  0
   -1.1905    0.3773   -0.1864 H   0  0  0  0  0  0  0  0  0  0  0  0
   -2.5325    0.4250   -2.0593 H   0  0  0  0  0  0  0  0  0  0  0  0
   -2.8458    1.9949   -1.7369 H   0  0  0  0  0  0  0  0  0  0  0  0
   -1.5643    1.5921   -2.6653 H   0  0  0  0  0  0  0  0  0  0  0  0
   -1.2587    1.5935    2.2411 H   0  0  0  0  0  0  0  0  0  0  0  0
   -0.0340    2.3006    3.0576 H   0  0  0  0  0  0  0  0  0  0  0  0
   -3.0188    2.9350    1.2047 H   0  0  0  0  0  0  0  0  0  0  0  0
   -4.2109    5.0119    1.2054 H   0  0  0  0  0  0  0  0  0  0  0  0
   -3.2501    6.9394    2.2439 H   0  0  0  0  0  0  0  0  0  0  0  0
   -1.1044    6.7954    3.2760 H   0  0  0  0  0  0  0  0  0  0  0  0
    0.0989    4.7253    3.2805 H   0  0  0  0  0  0  0  0  0  0  0  0
  1  2  2  0  0  0  0
  2  3  1  0  0  0  0
  3  4  1  0  0  0  0
  4  5  1  0  0  0  0
  5  6  3  0  0  0  0
  3  7  1  0  0  0  0
  2  8  1  0  0  0  0
  8  9  1  0  0  0  0
  9 10  1  0  0  0  0
 10 11  2  0  0  0  0
 10 12  1  0  0  0  0
 12 13  1  0  0  0  0
  9 14  1  0  0  0  0
 14 15  1  0  0  0  0
 15 16  1  0  0  0  0
 16 17  2  0  0  0  0
 17 18  1  0  0  0  0
 18 19  2  0  0  0  0
 19 20  1  0  0  0  0
 20 15  2  0  0  0  0
  4 21  1  0  0  0  0
  4 22  1  0  0  0  0
  6 23  1  0  0  0  0
  7 24  1  0  0  0  0
  7 25  1  0  0  0  0
  7 26  1  0  0  0  0
  8 27  1  0  0  0  0
  9 28  1  0  0  0  0
 12 29  1  0  0  0  0
 13 30  1  0  0  0  0
 13 31  1  0  0  0  0
 13 32  1  0  0  0  0
 14 33  1  0  0  0  0
 14 34  1  0  0  0  0
 16 35  1  0  0  0  0
 17 36  1  0  0  0  0
 18 37  1  0  0  0  0
 19 38  1  0  0  0  0
 20 39  1  0  0  0  0
M  END
>  <result-rank>
43

>  <similarity>
0.939

>  <query-name>
LIG_A_1101_2_02

>  <query-smiles>
BrC#CCNC(=O)[C@@H](NC(=O)C)Cc1ccc(O)cc1

>  <source>
REALspace_2019-12

>  <similarity-descriptor>
0.960;0.0;0.988;0.988;1.000;1.000;1.000;1.000;0.969;0.983;1.000;0.0;0.154

>  <similarity-descriptor-smiles>
c1ccccc1;;C;C;N;C=O;C;N;O=CN;CC;C;;C.C

>  <reaction-name>
s_272164

>  <reagent1-name>
14971778

>  <reagent1-smiles>
[R1*]C(=O)N(CC#C)C

>  <reagent2-name>
9388244

>  <reagent2-smiles>
[R1*]NC(C(=O)NC)Cc1ccccc1

$$$$
s_22____10176574____9162286
          04022015103D 1   1.00000     0.00000     0
            
 33 33  0  0  0  0            999 V2000
   -0.1219    4.3438    4.8894 Br  0  0  0  0  0  0  0  0  0  0  0  0
    1.5620    3.4143    5.2666 C   0  0  0  0  0  0  0  0  0  0  0  0
    1.3060    2.2717    5.8973 F   0  0  0  0  0  0  0  0  0  0  0  0
    2.3299    4.1822    6.0344 F   0  0  0  0  0  0  0  0  0  0  0  0
    2.2828    3.1218    3.9607 C   0  0  0  0  0  0  0  0  0  0  0  0
    1.4341    2.2731    3.1120 N   0  0  0  0  0  0  0  0  0  0  0  0
    1.8776    1.8776    1.8776 C   0  0  0  0  0  0  0  0  0  0  0  0
    2.9588    2.2240    1.4891 O   0  0  0  0  0  0  0  0  0  0  0  0
    1.0000    1.0000    1.0000 C   0  0  3  0  0  0  0  0  0  0  0  0
   -0.2199    0.7267    1.6734 O   0  0  0  0  0  0  0  0  0  0  0  0
    0.7075    1.7208   -0.3059 C   0  0  0  0  0  0  0  0  0  0  0  0
   -0.1698    0.8436   -1.1831 C   0  0  0  0  0  0  0  0  0  0  0  0
   -1.5525    0.9507   -1.0760 C   0  0  0  0  0  0  0  0  0  0  0  0
   -2.3536    0.1476   -1.8803 C   0  0  0  0  0  0  0  0  0  0  0  0
   -3.6975    0.2346   -1.7917 O   0  0  0  0  0  0  0  0  0  0  0  0
   -4.2913    1.1452   -0.8782 C   0  0  0  0  0  0  0  0  0  0  0  0
   -1.7814   -0.7488   -2.7771 C   0  0  0  0  0  0  0  0  0  0  0  0
   -0.3969   -0.8476   -2.8743 C   0  0  0  0  0  0  0  0  0  0  0  0
    0.4152   -0.0489   -2.0759 C   0  0  0  0  0  0  0  0  0  0  0  0
    2.4753    3.9809    3.4865 H   0  0  0  0  0  0  0  0  0  0  0  0
    3.1419    2.6475    4.1532 H   0  0  0  0  0  0  0  0  0  0  0  0
    0.5331    1.9844    3.4357 H   0  0  0  0  0  0  0  0  0  0  0  0
    1.4742    0.1409    0.8075 H   0  0  0  0  0  0  0  0  0  0  0  0
   -0.7973    0.1494    1.0960 H   0  0  0  0  0  0  0  0  0  0  0  0
    0.2333    2.5799   -0.1134 H   0  0  0  0  0  0  0  0  0  0  0  0
    1.5666    1.9133   -0.7801 H   0  0  0  0  0  0  0  0  0  0  0  0
   -1.9638    1.5948   -0.4310 H   0  0  0  0  0  0  0  0  0  0  0  0
   -5.2871    1.0801   -0.9424 H   0  0  0  0  0  0  0  0  0  0  0  0
   -4.0019    0.9204    0.0523 H   0  0  0  0  0  0  0  0  0  0  0  0
   -4.0031    2.0765   -1.1010 H   0  0  0  0  0  0  0  0  0  0  0  0
   -2.3652   -1.3221   -3.3520 H   0  0  0  0  0  0  0  0  0  0  0  0
    0.0144   -1.4929   -3.5182 H   0  0  0  0  0  0  0  0  0  0  0  0
    1.4107   -0.1155   -2.1430 H   0  0  0  0  0  0  0  0  0  0  0  0
  1  2  1  0  0  0  0
  2  3  1  0  0  0  0
  2  4  1  0  0  0  0
  2  5  1  0  0  0  0
  5  6  1  0  0  0  0
  6  7  1  0  0  0  0
  7  8  2  0  0  0  0
  7  9  1  0  0  0  0
  9 10  1  0  0  0  0
  9 11  1  0  0  0  0
 11 12  1  0  0  0  0
 12 13  1  0  0  0  0
 13 14  2  0  0  0  0
 14 15  1  0  0  0  0
 15 16  1  0  0  0  0
 14 17  1  0  0  0  0
 17 18  2  0  0  0  0
 18 19  1  0  0  0  0
 19 12  2  0  0  0  0
  5 20  1  0  0  0  0
  5 21  1  0  0  0  0
  6 22  1  0  0  0  0
  9 23  1  0  0  0  0
 10 24  1  0  0  0  0
 11 25  1  0  0  0  0
 11 26  1  0  0  0  0
 13 27  1  0  0  0  0
 16 28  1  0  0  0  0
 16 29  1  0  0  0  0
 16 30  1  0  0  0  0
 17 31  1  0  0  0  0
 18 32  1  0  0  0  0
 19 33  1  0  0  0  0
M  END
>  <result-rank>
44

>  <similarity>
0.939

>  <query-name>
LIG_A_1101_2_02

>  <query-smiles>
BrC#CCNC(=O)[C@@H](NC(=O)C)Cc1ccc(O)cc1

>  <source>
REALspace_2019-12

>  <similarity-descriptor>
1.000;0.986;0.986;0.999;1.000;1.000;0.833;0.833;0.833;0.0;1.000;0.704;0.100

>  <similarity-descriptor-smiles>
c1ccccc1;BrC(F)F;BrC(F)F;C;N;C=O;CO;CO;CO;;C;O;C

>  <reaction-name>
s_22

>  <reagent1-name>
10176574

>  <reagent1-smiles>
[R1*]NCC(Br)(F)F

>  <reagent2-name>
9162286

>  <reagent2-smiles>
[R1*]C(=O)C(O)Cc1cc(OC)ccc1

$$$$
s_22____664724____17513450
          04022015103D 1   1.00000     0.00000     0
            
 44 45  0  0  0  0            999 V2000
    3.0596    1.6786    1.9338 O   0  0  0  0  0  0  0  0  0  0  0  0
    1.8776    1.8776    1.8776 C   0  0  0  0  0  0  0  0  0  0  0  0
    1.3190    2.8957    2.6044 N   0  0  0  0  0  0  0  0  0  0  0  0
    2.1677    3.7445    3.4531 C   0  0  0  0  0  0  0  0  0  0  0  0
    2.8615    4.7907    2.5920 C   0  0  3  0  0  0  0  0  0  0  0  0
    1.8883    5.6976    1.8601 C   0  0  0  0  0  0  0  0  0  0  0  0
    2.6579    6.8462    1.5494 O   0  0  0  0  0  0  0  0  0  0  0  0
    3.7290    6.9544    2.4748 C   0  0  0  0  0  0  0  0  0  0  0  0
    3.5806    5.8086    3.4522 C   0  0  0  0  0  0  0  0  0  0  0  0
    1.0000    1.0000    1.0000 C   0  0  3  0  0  0  0  0  0  0  0  0
   -0.2629    0.7171    1.6971 N   0  0  0  0  0  0  0  0  0  0  0  0
   -0.6150   -0.5766    1.9787 C   0  0  0  0  0  0  0  0  0  0  0  0
    0.1075   -1.4788    1.6563 O   0  0  0  0  0  0  0  0  0  0  0  0
   -1.9209   -0.8691    2.6995 C   0  0  0  0  0  0  0  0  0  0  0  0
    0.7075    1.7208   -0.3059 C   0  0  0  0  0  0  0  0  0  0  0  0
   -0.1701    0.8432   -1.1835 C   0  0  0  0  0  0  0  0  0  0  0  0
   -1.5540    0.9425   -1.0842 C   0  0  0  0  0  0  0  0  0  0  0  0
   -2.3610    0.1420   -1.8857 C   0  0  0  0  0  0  0  0  0  0  0  0
   -1.7726   -0.7486   -2.7781 C   0  0  0  0  0  0  0  0  0  0  0  0
   -2.5520   -1.5276   -3.5577 O   0  0  0  0  0  0  0  0  0  0  0  0
   -0.3891   -0.8520   -2.8811 C   0  0  0  0  0  0  0  0  0  0  0  0
    0.4131   -0.0489   -2.0774 C   0  0  0  0  0  0  0  0  0  0  0  0
    0.3340    3.0616    2.5576 H   0  0  0  0  0  0  0  0  0  0  0  0
    2.8550    3.1788    3.9088 H   0  0  0  0  0  0  0  0  0  0  0  0
    1.6021    4.2002    4.1404 H   0  0  0  0  0  0  0  0  0  0  0  0
    3.4947    4.3583    1.9500 H   0  0  0  0  0  0  0  0  0  0  0  0
    1.5518    5.2591    1.0268 H   0  0  0  0  0  0  0  0  0  0  0  0
    1.1146    5.9362    2.4470 H   0  0  0  0  0  0  0  0  0  0  0  0
    3.6789    7.8281    2.9586 H   0  0  0  0  0  0  0  0  0  0  0  0
    4.6048    6.8878    1.9967 H   0  0  0  0  0  0  0  0  0  0  0  0
    4.4699    5.4688    3.7582 H   0  0  0  0  0  0  0  0  0  0  0  0
    3.0329    6.0714    4.2465 H   0  0  0  0  0  0  0  0  0  0  0  0
    1.4742    0.1409    0.8075 H   0  0  0  0  0  0  0  0  0  0  0  0
   -0.8650    1.4689    1.9658 H   0  0  0  0  0  0  0  0  0  0  0  0
   -2.3951   -0.0100    2.8919 H   0  0  0  0  0  0  0  0  0  0  0  0
   -2.4982   -1.4465    2.1221 H   0  0  0  0  0  0  0  0  0  0  0  0
   -1.7284   -1.3433    3.5586 H   0  0  0  0  0  0  0  0  0  0  0  0
    0.2333    2.5799   -0.1134 H   0  0  0  0  0  0  0  0  0  0  0  0
    1.5666    1.9133   -0.7801 H   0  0  0  0  0  0  0  0  0  0  0  0
   -1.9667    1.5862   -0.4397 H   0  0  0  0  0  0  0  0  0  0  0  0
   -3.3569    0.2061   -1.8211 H   0  0  0  0  0  0  0  0  0  0  0  0
   -2.1337   -2.1692   -4.2005 H   0  0  0  0  0  0  0  0  0  0  0  0
    0.0237   -1.4961   -3.5251 H   0  0  0  0  0  0  0  0  0  0  0  0
    1.4089   -0.1127   -2.1423 H   0  0  0  0  0  0  0  0  0  0  0  0
  1  2  2  0  0  0  0
  2  3  1  0  0  0  0
  3  4  1  0  0  0  0
  4  5  1  0  0  0  0
  5  6  1  0  0  0  0
  6  7  1  0  0  0  0
  7  8  1  0  0  0  0
  8  9  1  0  0  0  0
  9  5  1  0  0  0  0
  2 10  1  0  0  0  0
 10 11  1  0  0  0  0
 11 12  1  0  0  0  0
 12 13  2  0  0  0  0
 12 14  1  0  0  0  0
 10 15  1  0  0  0  0
 15 16  1  0  0  0  0
 16 17  1  0  0  0  0
 17 18  2  0  0  0  0
 18 19  1  0  0  0  0
 19 20  1  0  0  0  0
 19 21  2  0  0  0  0
 21 22  1  0  0  0  0
 22 16  2  0  0  0  0
  3 23  1  0  0  0  0
  4 24  1  0  0  0  0
  4 25  1  0  0  0  0
  5 26  1  0  0  0  0
  6 27  1  0  0  0  0
  6 28  1  0  0  0  0
  8 29  1  0  0  0  0
  8 30  1  0  0  0  0
  9 31  1  0  0  0  0
  9 32  1  0  0  0  0
 10 33  1  0  0  0  0
 11 34  1  0  0  0  0
 14 35  1  0  0  0  0
 14 36  1  0  0  0  0
 14 37  1  0  0  0  0
 15 38  1  0  0  0  0
 15 39  1  0  0  0  0
 17 40  1  0  0  0  0
 18 41  1  0  0  0  0
 20 42  1  0  0  0  0
 21 43  1  0  0  0  0
 22 44  1  0  0  0  0
M  END
>  <result-rank>
45

>  <similarity>
0.938

>  <query-name>
LIG_A_1101_2_02

>  <query-smiles>
BrC#CCNC(=O)[C@@H](NC(=O)C)Cc1ccc(O)cc1

>  <source>
REALspace_2019-12

>  <similarity-descriptor>
1.000;0.0;0.939;0.939;1.000;1.000;1.000;1.000;1.000;1.000;1.000;1.000;0.091

>  <similarity-descriptor-smiles>
c1ccccc1;;C;C;N;O=C;C;N;C=O;C;C;O;C1CCOC1

>  <reaction-name>
s_22

>  <reagent1-name>
664724

>  <reagent1-smiles>
[R1*]NCC1COCC1

>  <reagent2-name>
17513450

>  <reagent2-smiles>
[R1*]C(=O)C(NC(=O)C)Cc1ccc(O)cc1

$$$$
s_240690a____8699394____17513472
          04022015103D 1   1.00000     0.00000     0
            
 46 47  0  0  0  0            999 V2000
    3.0596    1.6786    1.9338 O   0  0  0  0  0  0  0  0  0  0  0  0
    1.8776    1.8776    1.8776 C   0  0  0  0  0  0  0  0  0  0  0  0
    1.3190    2.8957    2.6044 N   0  0  0  0  0  0  0  0  0  0  0  0
    2.1677    3.7445    3.4531 C   0  0  0  0  0  0  0  0  0  0  0  0
    2.8602    4.7887    2.5936 C   0  0  3  0  0  0  0  0  0  0  0  0
    1.8631    5.6793    1.8753 C   0  0  0  0  0  0  0  0  0  0  0  0
    2.6404    6.8739    1.5229 N   0  3  0  0  0  0  0  0  0  0  0  0
    3.7317    6.9880    2.4960 C   0  0  0  0  0  0  0  0  0  0  0  0
    3.5775    5.8139    3.4473 C   0  0  0  0  0  0  0  0  0  0  0  0
    1.0000    1.0000    1.0000 C   0  0  3  0  0  0  0  0  0  0  0  0
   -0.2629    0.7171    1.6971 N   0  0  0  0  0  0  0  0  0  0  0  0
   -0.6150   -0.5766    1.9787 C   0  0  0  0  0  0  0  0  0  0  0  0
    0.1075   -1.4788    1.6563 O   0  0  0  0  0  0  0  0  0  0  0  0
   -1.9209   -0.8691    2.6995 C   0  0  0  0  0  0  0  0  0  0  0  0
    0.7075    1.7208   -0.3059 C   0  0  0  0  0  0  0  0  0  0  0  0
   -0.1701    0.8432   -1.1835 C   0  0  0  0  0  0  0  0  0  0  0  0
   -1.5540    0.9425   -1.0842 C   0  0  0  0  0  0  0  0  0  0  0  0
   -2.3610    0.1420   -1.8857 C   0  0  0  0  0  0  0  0  0  0  0  0
   -1.7726   -0.7486   -2.7781 C   0  0  0  0  0  0  0  0  0  0  0  0
   -2.5520   -1.5276   -3.5577 O   0  0  0  0  0  0  0  0  0  0  0  0
   -0.3891   -0.8520   -2.8811 C   0  0  0  0  0  0  0  0  0  0  0  0
    0.4131   -0.0489   -2.0774 C   0  0  0  0  0  0  0  0  0  0  0  0
    2.0580    7.6857    1.5653 H   0  0  0  0  0  0  0  0  0  0  0  0
    3.0135    6.7792    0.6000 H   0  0  0  0  0  0  0  0  0  0  0  0
    0.3340    3.0616    2.5576 H   0  0  0  0  0  0  0  0  0  0  0  0
    2.8550    3.1788    3.9088 H   0  0  0  0  0  0  0  0  0  0  0  0
    1.6021    4.2002    4.1404 H   0  0  0  0  0  0  0  0  0  0  0  0
    3.4890    4.3594    1.9453 H   0  0  0  0  0  0  0  0  0  0  0  0
    1.5119    5.2291    1.0544 H   0  0  0  0  0  0  0  0  0  0  0  0
    1.1007    5.9165    2.4774 H   0  0  0  0  0  0  0  0  0  0  0  0
    3.6609    7.8510    2.9963 H   0  0  0  0  0  0  0  0  0  0  0  0
    4.6161    6.9436    2.0314 H   0  0  0  0  0  0  0  0  0  0  0  0
    4.4684    5.4736    3.7480 H   0  0  0  0  0  0  0  0  0  0  0  0
    3.0301    6.0656    4.2455 H   0  0  0  0  0  0  0  0  0  0  0  0
    1.4742    0.1409    0.8075 H   0  0  0  0  0  0  0  0  0  0  0  0
   -0.8650    1.4689    1.9658 H   0  0  0  0  0  0  0  0  0  0  0  0
   -2.3951   -0.0100    2.8919 H   0  0  0  0  0  0  0  0  0  0  0  0
   -2.4982   -1.4465    2.1221 H   0  0  0  0  0  0  0  0  0  0  0  0
   -1.7284   -1.3433    3.5586 H   0  0  0  0  0  0  0  0  0  0  0  0
    0.2333    2.5799   -0.1134 H   0  0  0  0  0  0  0  0  0  0  0  0
    1.5666    1.9133   -0.7801 H   0  0  0  0  0  0  0  0  0  0  0  0
   -1.9667    1.5862   -0.4397 H   0  0  0  0  0  0  0  0  0  0  0  0
   -3.3569    0.2061   -1.8211 H   0  0  0  0  0  0  0  0  0  0  0  0
   -2.1337   -2.1692   -4.2005 H   0  0  0  0  0  0  0  0  0  0  0  0
    0.0237   -1.4961   -3.5251 H   0  0  0  0  0  0  0  0  0  0  0  0
    1.4089   -0.1127   -2.1423 H   0  0  0  0  0  0  0  0  0  0  0  0
  1  2  2  0  0  0  0
  2  3  1  0  0  0  0
  3  4  1  0  0  0  0
  4  5  1  0  0  0  0
  5  6  1  0  0  0  0
  6  7  1  0  0  0  0
  7  8  1  0  0  0  0
  8  9  1  0  0  0  0
  9  5  1  0  0  0  0
  2 10  1  0  0  0  0
 10 11  1  0  0  0  0
 11 12  1  0  0  0  0
 12 13  2  0  0  0  0
 12 14  1  0  0  0  0
 10 15  1  0  0  0  0
 15 16  1  0  0  0  0
 16 17  1  0  0  0  0
 17 18  2  0  0  0  0
 18 19  1  0  0  0  0
 19 20  1  0  0  0  0
 19 21  2  0  0  0  0
 21 22  1  0  0  0  0
 22 16  2  0  0  0  0
  7 23  1  0  0  0  0
  7 24  1  0  0  0  0
  3 25  1  0  0  0  0
  4 26  1  0  0  0  0
  4 27  1  0  0  0  0
  5 28  1  0  0  0  0
  6 29  1  0  0  0  0
  6 30  1  0  0  0  0
  8 31  1  0  0  0  0
  8 32  1  0  0  0  0
  9 33  1  0  0  0  0
  9 34  1  0  0  0  0
 10 35  1  0  0  0  0
 11 36  1  0  0  0  0
 14 37  1  0  0  0  0
 14 38  1  0  0  0  0
 14 39  1  0  0  0  0
 15 40  1  0  0  0  0
 15 41  1  0  0  0  0
 17 42  1  0  0  0  0
 18 43  1  0  0  0  0
 20 44  1  0  0  0  0
 21 45  1  0  0  0  0
 22 46  1  0  0  0  0
M  CHG  1   7   1
M  END
>  <result-rank>
46

>  <similarity>
0.938

>  <query-name>
LIG_A_1101_2_02

>  <query-smiles>
BrC#CCNC(=O)[C@@H](NC(=O)C)Cc1ccc(O)cc1

>  <source>
REALspace_2019-12

>  <similarity-descriptor>
1.000;0.0;0.939;0.939;1.000;1.000;1.000;1.000;1.000;1.000;1.000;1.000;0.091

>  <similarity-descriptor-smiles>
c1ccccc1;;C;C;N;O=C;C;N;C=O;C;C;O;C1CC[NH2+]C1

>  <reaction-name>
s_240690a

>  <reagent1-name>
8699394

>  <reagent1-smiles>
[R1*]NCC1CNCC1

>  <reagent2-name>
17513472

>  <reagent2-smiles>
[R1*]C(=O)C(NC(=O)C)Cc1ccc(O)cc1

$$$$
s_22____12107366____17513450
          04022015103D 1   1.00000     0.00000     0
            
 42 43  0  0  0  0            999 V2000
    3.9344    5.8929    3.5356 S   0  0  0  0  0  0  0  0  0  0  0  0
    2.8616    4.7908    2.5919 C   0  0  0  0  0  0  0  0  0  0  0  0
    1.6742    6.0208    2.0142 S   0  0  0  0  0  0  0  0  0  0  0  0
    2.6463    7.5433    1.9582 C   0  0  0  0  0  0  0  0  0  0  0  0
    4.0858    7.2343    2.3343 C   0  0  0  0  0  0  0  0  0  0  0  0
    2.1677    3.7445    3.4531 C   0  0  0  0  0  0  0  0  0  0  0  0
    1.3190    2.8957    2.6044 N   0  0  0  0  0  0  0  0  0  0  0  0
    1.8776    1.8776    1.8776 C   0  0  0  0  0  0  0  0  0  0  0  0
    3.0596    1.6786    1.9338 O   0  0  0  0  0  0  0  0  0  0  0  0
    1.0000    1.0000    1.0000 C   0  0  3  0  0  0  0  0  0  0  0  0
   -0.2629    0.7171    1.6971 N   0  0  0  0  0  0  0  0  0  0  0  0
   -0.6150   -0.5766    1.9787 C   0  0  0  0  0  0  0  0  0  0  0  0
    0.1075   -1.4788    1.6563 O   0  0  0  0  0  0  0  0  0  0  0  0
   -1.9209   -0.8691    2.6995 C   0  0  0  0  0  0  0  0  0  0  0  0
    0.7075    1.7208   -0.3059 C   0  0  0  0  0  0  0  0  0  0  0  0
   -0.1701    0.8432   -1.1835 C   0  0  0  0  0  0  0  0  0  0  0  0
   -1.5540    0.9425   -1.0842 C   0  0  0  0  0  0  0  0  0  0  0  0
   -2.3610    0.1420   -1.8857 C   0  0  0  0  0  0  0  0  0  0  0  0
   -1.7726   -0.7486   -2.7781 C   0  0  0  0  0  0  0  0  0  0  0  0
   -2.5520   -1.5276   -3.5577 O   0  0  0  0  0  0  0  0  0  0  0  0
   -0.3891   -0.8520   -2.8811 C   0  0  0  0  0  0  0  0  0  0  0  0
    0.4131   -0.0489   -2.0774 C   0  0  0  0  0  0  0  0  0  0  0  0
    3.3514    4.3693    1.8288 H   0  0  0  0  0  0  0  0  0  0  0  0
    2.2670    8.2056    2.6044 H   0  0  0  0  0  0  0  0  0  0  0  0
    2.6169    7.9245    1.0342 H   0  0  0  0  0  0  0  0  0  0  0  0
    4.6082    6.9395    1.5342 H   0  0  0  0  0  0  0  0  0  0  0  0
    4.5266    8.0327    2.7445 H   0  0  0  0  0  0  0  0  0  0  0  0
    2.8550    3.1788    3.9088 H   0  0  0  0  0  0  0  0  0  0  0  0
    1.6021    4.2002    4.1404 H   0  0  0  0  0  0  0  0  0  0  0  0
    0.3340    3.0616    2.5576 H   0  0  0  0  0  0  0  0  0  0  0  0
    1.4742    0.1409    0.8075 H   0  0  0  0  0  0  0  0  0  0  0  0
   -0.8650    1.4689    1.9658 H   0  0  0  0  0  0  0  0  0  0  0  0
   -2.3951   -0.0100    2.8919 H   0  0  0  0  0  0  0  0  0  0  0  0
   -2.4982   -1.4465    2.1221 H   0  0  0  0  0  0  0  0  0  0  0  0
   -1.7284   -1.3433    3.5586 H   0  0  0  0  0  0  0  0  0  0  0  0
    0.2333    2.5799   -0.1134 H   0  0  0  0  0  0  0  0  0  0  0  0
    1.5666    1.9133   -0.7801 H   0  0  0  0  0  0  0  0  0  0  0  0
   -1.9667    1.5862   -0.4397 H   0  0  0  0  0  0  0  0  0  0  0  0
   -3.3569    0.2061   -1.8211 H   0  0  0  0  0  0  0  0  0  0  0  0
   -2.1337   -2.1692   -4.2005 H   0  0  0  0  0  0  0  0  0  0  0  0
    0.0237   -1.4961   -3.5251 H   0  0  0  0  0  0  0  0  0  0  0  0
    1.4089   -0.1127   -2.1423 H   0  0  0  0  0  0  0  0  0  0  0  0
  1  2  1  0  0  0  0
  2  3  1  0  0  0  0
  3  4  1  0  0  0  0
  4  5  1  0  0  0  0
  5  1  1  0  0  0  0
  2  6  1  0  0  0  0
  6  7  1  0  0  0  0
  7  8  1  0  0  0  0
  8  9  2  0  0  0  0
  8 10  1  0  0  0  0
 10 11  1  0  0  0  0
 11 12  1  0  0  0  0
 12 13  2  0  0  0  0
 12 14  1  0  0  0  0
 10 15  1  0  0  0  0
 15 16  1  0  0  0  0
 16 17  1  0  0  0  0
 17 18  2  0  0  0  0
 18 19  1  0  0  0  0
 19 20  1  0  0  0  0
 19 21  2  0  0  0  0
 21 22  1  0  0  0  0
 22 16  2  0  0  0  0
  2 23  1  0  0  0  0
  4 24  1  0  0  0  0
  4 25  1  0  0  0  0
  5 26  1  0  0  0  0
  5 27  1  0  0  0  0
  6 28  1  0  0  0  0
  6 29  1  0  0  0  0
  7 30  1  0  0  0  0
 10 31  1  0  0  0  0
 11 32  1  0  0  0  0
 14 33  1  0  0  0  0
 14 34  1  0  0  0  0
 14 35  1  0  0  0  0
 15 36  1  0  0  0  0
 15 37  1  0  0  0  0
 17 38  1  0  0  0  0
 18 39  1  0  0  0  0
 20 40  1  0  0  0  0
 21 41  1  0  0  0  0
 22 42  1  0  0  0  0
M  END
>  <result-rank>
47

>  <similarity>
0.938

>  <query-name>
LIG_A_1101_2_02

>  <query-smiles>
BrC#CCNC(=O)[C@@H](NC(=O)C)Cc1ccc(O)cc1

>  <source>
REALspace_2019-12

>  <similarity-descriptor>
1.000;0.0;0.939;0.939;1.000;1.000;1.000;1.000;1.000;1.000;1.000;1.000;0.091

>  <similarity-descriptor-smiles>
c1ccccc1;;C;C;N;C=O;C;N;C=O;C;C;O;S1CCSC1

>  <reaction-name>
s_22

>  <reagent1-name>
12107366

>  <reagent1-smiles>
[R1*]NCC1SCCS1

>  <reagent2-name>
17513450

>  <reagent2-smiles>
[R1*]C(=O)C(NC(=O)C)Cc1ccc(O)cc1

$$$$
s_22____587016____17513450
          04022015103D 1   1.00000     0.00000     0
            
 46 47  0  0  0  0            999 V2000
    3.0596    1.6786    1.9338 O   0  0  0  0  0  0  0  0  0  0  0  0
    1.8776    1.8776    1.8776 C   0  0  0  0  0  0  0  0  0  0  0  0
    1.3190    2.8957    2.6044 N   0  0  0  0  0  0  0  0  0  0  0  0
    2.1677    3.7445    3.4531 C   0  0  0  0  0  0  0  0  0  0  0  0
    2.8608    4.7895    2.5929 C   0  0  0  0  0  0  0  0  0  0  0  0
    3.7517    5.6979    3.4070 C   0  0  0  0  0  0  0  0  0  0  0  0
    3.9598    6.9122    2.5206 C   0  0  0  0  0  0  0  0  0  0  0  0
    2.7256    6.9689    1.6309 C   0  0  0  0  0  0  0  0  0  0  0  0
    1.8647    5.7907    2.0467 C   0  0  0  0  0  0  0  0  0  0  0  0
    1.0000    1.0000    1.0000 C   0  0  3  0  0  0  0  0  0  0  0  0
   -0.2629    0.7171    1.6971 N   0  0  0  0  0  0  0  0  0  0  0  0
   -0.6150   -0.5766    1.9787 C   0  0  0  0  0  0  0  0  0  0  0  0
    0.1075   -1.4788    1.6563 O   0  0  0  0  0  0  0  0  0  0  0  0
   -1.9209   -0.8691    2.6995 C   0  0  0  0  0  0  0  0  0  0  0  0
    0.7075    1.7208   -0.3059 C   0  0  0  0  0  0  0  0  0  0  0  0
   -0.1701    0.8432   -1.1835 C   0  0  0  0  0  0  0  0  0  0  0  0
   -1.5540    0.9425   -1.0842 C   0  0  0  0  0  0  0  0  0  0  0  0
   -2.3610    0.1420   -1.8857 C   0  0  0  0  0  0  0  0  0  0  0  0
   -1.7726   -0.7486   -2.7781 C   0  0  0  0  0  0  0  0  0  0  0  0
   -2.5520   -1.5276   -3.5577 O   0  0  0  0  0  0  0  0  0  0  0  0
   -0.3891   -0.8520   -2.8811 C   0  0  0  0  0  0  0  0  0  0  0  0
    0.4131   -0.0489   -2.0774 C   0  0  0  0  0  0  0  0  0  0  0  0
    0.3340    3.0616    2.5576 H   0  0  0  0  0  0  0  0  0  0  0  0
    2.8550    3.1788    3.9088 H   0  0  0  0  0  0  0  0  0  0  0  0
    1.6021    4.2002    4.1404 H   0  0  0  0  0  0  0  0  0  0  0  0
    3.3745    4.3574    1.8518 H   0  0  0  0  0  0  0  0  0  0  0  0
    4.6240    5.2518    3.6072 H   0  0  0  0  0  0  0  0  0  0  0  0
    3.3054    5.9569    4.2636 H   0  0  0  0  0  0  0  0  0  0  0  0
    4.7865    6.8062    1.9680 H   0  0  0  0  0  0  0  0  0  0  0  0
    4.0326    7.7423    3.0734 H   0  0  0  0  0  0  0  0  0  0  0  0
    2.2331    7.8276    1.7724 H   0  0  0  0  0  0  0  0  0  0  0  0
    2.9856    6.8883    0.6687 H   0  0  0  0  0  0  0  0  0  0  0  0
    1.2081    6.0605    2.7511 H   0  0  0  0  0  0  0  0  0  0  0  0
    1.3745    5.4131    1.2612 H   0  0  0  0  0  0  0  0  0  0  0  0
    1.4742    0.1409    0.8075 H   0  0  0  0  0  0  0  0  0  0  0  0
   -0.8650    1.4689    1.9658 H   0  0  0  0  0  0  0  0  0  0  0  0
   -2.3951   -0.0100    2.8919 H   0  0  0  0  0  0  0  0  0  0  0  0
   -2.4982   -1.4465    2.1221 H   0  0  0  0  0  0  0  0  0  0  0  0
   -1.7284   -1.3433    3.5586 H   0  0  0  0  0  0  0  0  0  0  0  0
    0.2333    2.5799   -0.1134 H   0  0  0  0  0  0  0  0  0  0  0  0
    1.5666    1.9133   -0.7801 H   0  0  0  0  0  0  0  0  0  0  0  0
   -1.9667    1.5862   -0.4397 H   0  0  0  0  0  0  0  0  0  0  0  0
   -3.3569    0.2061   -1.8211 H   0  0  0  0  0  0  0  0  0  0  0  0
   -2.1337   -2.1692   -4.2005 H   0  0  0  0  0  0  0  0  0  0  0  0
    0.0237   -1.4961   -3.5251 H   0  0  0  0  0  0  0  0  0  0  0  0
    1.4089   -0.1127   -2.1423 H   0  0  0  0  0  0  0  0  0  0  0  0
  1  2  2  0  0  0  0
  2  3  1  0  0  0  0
  3  4  1  0  0  0  0
  4  5  1  0  0  0  0
  5  6  1  0  0  0  0
  6  7  1  0  0  0  0
  7  8  1  0  0  0  0
  8  9  1  0  0  0  0
  9  5  1  0  0  0  0
  2 10  1  0  0  0  0
 10 11  1  0  0  0  0
 11 12  1  0  0  0  0
 12 13  2  0  0  0  0
 12 14  1  0  0  0  0
 10 15  1  0  0  0  0
 15 16  1  0  0  0  0
 16 17  1  0  0  0  0
 17 18  2  0  0  0  0
 18 19  1  0  0  0  0
 19 20  1  0  0  0  0
 19 21  2  0  0  0  0
 21 22  1  0  0  0  0
 22 16  2  0  0  0  0
  3 23  1  0  0  0  0
  4 24  1  0  0  0  0
  4 25  1  0  0  0  0
  5 26  1  0  0  0  0
  6 27  1  0  0  0  0
  6 28  1  0  0  0  0
  7 29  1  0  0  0  0
  7 30  1  0  0  0  0
  8 31  1  0  0  0  0
  8 32  1  0  0  0  0
  9 33  1  0  0  0  0
  9 34  1  0  0  0  0
 10 35  1  0  0  0  0
 11 36  1  0  0  0  0
 14 37  1  0  0  0  0
 14 38  1  0  0  0  0
 14 39  1  0  0  0  0
 15 40  1  0  0  0  0
 15 41  1  0  0  0  0
 17 42  1  0  0  0  0
 18 43  1  0  0  0  0
 20 44  1  0  0  0  0
 21 45  1  0  0  0  0
 22 46  1  0  0  0  0
M  END
>  <result-rank>
48

>  <similarity>
0.938

>  <query-name>
LIG_A_1101_2_02

>  <query-smiles>
BrC#CCNC(=O)[C@@H](NC(=O)C)Cc1ccc(O)cc1

>  <source>
REALspace_2019-12

>  <similarity-descriptor>
1.000;0.0;0.939;0.939;1.000;1.000;1.000;1.000;1.000;1.000;1.000;1.000;0.091

>  <similarity-descriptor-smiles>
c1ccccc1;;C;C;N;O=C;C;N;C=O;C;C;O;C1CCCC1

>  <reaction-name>
s_22

>  <reagent1-name>
587016

>  <reagent1-smiles>
[R1*]NCC1CCCC1

>  <reagent2-name>
17513450

>  <reagent2-smiles>
[R1*]C(=O)C(NC(=O)C)Cc1ccc(O)cc1

$$$$
s_22____736064____17513450
          04022015103D 1   1.00000     0.00000     0
            
 40 41  0  0  0  0            999 V2000
    3.0596    1.6786    1.9338 O   0  0  0  0  0  0  0  0  0  0  0  0
    1.8776    1.8776    1.8776 C   0  0  0  0  0  0  0  0  0  0  0  0
    1.3190    2.8957    2.6044 N   0  0  0  0  0  0  0  0  0  0  0  0
    2.1677    3.7445    3.4531 C   0  0  0  0  0  0  0  0  0  0  0  0
    2.6637    4.9339    2.6457 C   0  0  0  0  0  0  0  0  0  0  0  0
    2.0737    6.0971    2.5240 N   0  0  0  0  0  0  0  0  0  0  0  0
    2.7666    6.9054    1.7528 N   0  0  0  0  0  0  0  0  0  0  0  0
    3.8863    6.2463    1.3366 C   0  0  0  0  0  0  0  0  0  0  0  0
    3.8518    4.9993    1.8821 C   0  0  0  0  0  0  0  0  0  0  0  0
    1.0000    1.0000    1.0000 C   0  0  3  0  0  0  0  0  0  0  0  0
   -0.2629    0.7171    1.6971 N   0  0  0  0  0  0  0  0  0  0  0  0
   -0.6150   -0.5766    1.9787 C   0  0  0  0  0  0  0  0  0  0  0  0
    0.1075   -1.4788    1.6563 O   0  0  0  0  0  0  0  0  0  0  0  0
   -1.9209   -0.8691    2.6995 C   0  0  0  0  0  0  0  0  0  0  0  0
    0.7075    1.7208   -0.3059 C   0  0  0  0  0  0  0  0  0  0  0  0
   -0.1701    0.8432   -1.1835 C   0  0  0  0  0  0  0  0  0  0  0  0
   -1.5540    0.9425   -1.0842 C   0  0  0  0  0  0  0  0  0  0  0  0
   -2.3610    0.1420   -1.8857 C   0  0  0  0  0  0  0  0  0  0  0  0
   -1.7726   -0.7486   -2.7781 C   0  0  0  0  0  0  0  0  0  0  0  0
   -2.5520   -1.5276   -3.5577 O   0  0  0  0  0  0  0  0  0  0  0  0
   -0.3891   -0.8520   -2.8811 C   0  0  0  0  0  0  0  0  0  0  0  0
    0.4131   -0.0489   -2.0774 C   0  0  0  0  0  0  0  0  0  0  0  0
    0.3340    3.0616    2.5576 H   0  0  0  0  0  0  0  0  0  0  0  0
    2.9499    3.2135    3.7792 H   0  0  0  0  0  0  0  0  0  0  0  0
    1.6368    4.0706    4.2352 H   0  0  0  0  0  0  0  0  0  0  0  0
    2.5158    7.8430    1.5122 H   0  0  0  0  0  0  0  0  0  0  0  0
    4.6011    6.6120    0.7405 H   0  0  0  0  0  0  0  0  0  0  0  0
    4.5309    4.2746    1.7659 H   0  0  0  0  0  0  0  0  0  0  0  0
    1.4742    0.1409    0.8075 H   0  0  0  0  0  0  0  0  0  0  0  0
   -0.8650    1.4689    1.9658 H   0  0  0  0  0  0  0  0  0  0  0  0
   -2.3951   -0.0100    2.8919 H   0  0  0  0  0  0  0  0  0  0  0  0
   -2.4982   -1.4465    2.1221 H   0  0  0  0  0  0  0  0  0  0  0  0
   -1.7284   -1.3433    3.5586 H   0  0  0  0  0  0  0  0  0  0  0  0
    0.2333    2.5799   -0.1134 H   0  0  0  0  0  0  0  0  0  0  0  0
    1.5666    1.9133   -0.7801 H   0  0  0  0  0  0  0  0  0  0  0  0
   -1.9667    1.5862   -0.4397 H   0  0  0  0  0  0  0  0  0  0  0  0
   -3.3569    0.2061   -1.8211 H   0  0  0  0  0  0  0  0  0  0  0  0
   -2.1337   -2.1692   -4.2005 H   0  0  0  0  0  0  0  0  0  0  0  0
    0.0237   -1.4961   -3.5251 H   0  0  0  0  0  0  0  0  0  0  0  0
    1.4089   -0.1127   -2.1423 H   0  0  0  0  0  0  0  0  0  0  0  0
  1  2  2  0  0  0  0
  2  3  1  0  0  0  0
  3  4  1  0  0  0  0
  4  5  1  0  0  0  0
  5  6  2  0  0  0  0
  6  7  1  0  0  0  0
  7  8  1  0  0  0  0
  8  9  2  0  0  0  0
  9  5  1  0  0  0  0
  2 10  1  0  0  0  0
 10 11  1  0  0  0  0
 11 12  1  0  0  0  0
 12 13  2  0  0  0  0
 12 14  1  0  0  0  0
 10 15  1  0  0  0  0
 15 16  1  0  0  0  0
 16 17  1  0  0  0  0
 17 18  2  0  0  0  0
 18 19  1  0  0  0  0
 19 20  1  0  0  0  0
 19 21  2  0  0  0  0
 21 22  1  0  0  0  0
 22 16  2  0  0  0  0
  3 23  1  0  0  0  0
  4 24  1  0  0  0  0
  4 25  1  0  0  0  0
  7 26  1  0  0  0  0
  8 27  1  0  0  0  0
  9 28  1  0  0  0  0
 10 29  1  0  0  0  0
 11 30  1  0  0  0  0
 14 31  1  0  0  0  0
 14 32  1  0  0  0  0
 14 33  1  0  0  0  0
 15 34  1  0  0  0  0
 15 35  1  0  0  0  0
 17 36  1  0  0  0  0
 18 37  1  0  0  0  0
 20 38  1  0  0  0  0
 21 39  1  0  0  0  0
 22 40  1  0  0  0  0
M  END
>  <result-rank>
49

>  <similarity>
0.938

>  <query-name>
LIG_A_1101_2_02

>  <query-smiles>
BrC#CCNC(=O)[C@@H](NC(=O)C)Cc1ccc(O)cc1

>  <source>
REALspace_2019-12

>  <similarity-descriptor>
1.000;0.0;0.939;0.939;1.000;1.000;1.000;1.000;1.000;1.000;1.000;1.000;0.091

>  <similarity-descriptor-smiles>
c1ccccc1;;C;C;N;O=C;C;N;C=O;C;C;O;C=1C=CNN1

>  <reaction-name>
s_22

>  <reagent1-name>
736064

>  <reagent1-smiles>
[R1*]NCC1=NNC=C1

>  <reagent2-name>
17513450

>  <reagent2-smiles>
[R1*]C(=O)C(NC(=O)C)Cc1ccc(O)cc1

$$$$
s_22____58384____17513450
          04022015103D 1   1.00000     0.00000     0
            
 40 41  0  0  0  0            999 V2000
    1.8720    6.4340    2.5079 S   0  0  0  0  0  0  0  0  0  0  0  0
    2.6641    4.9349    2.6450 C   0  0  0  0  0  0  0  0  0  0  0  0
    3.8058    5.0098    1.9097 C   0  0  0  0  0  0  0  0  0  0  0  0
    3.9733    6.2674    1.2664 C   0  0  0  0  0  0  0  0  0  0  0  0
    2.9956    7.1928    1.4778 C   0  0  0  0  0  0  0  0  0  0  0  0
    2.1677    3.7445    3.4531 C   0  0  0  0  0  0  0  0  0  0  0  0
    1.3190    2.8957    2.6044 N   0  0  0  0  0  0  0  0  0  0  0  0
    1.8776    1.8776    1.8776 C   0  0  0  0  0  0  0  0  0  0  0  0
    3.0596    1.6786    1.9338 O   0  0  0  0  0  0  0  0  0  0  0  0
    1.0000    1.0000    1.0000 C   0  0  3  0  0  0  0  0  0  0  0  0
   -0.2629    0.7171    1.6971 N   0  0  0  0  0  0  0  0  0  0  0  0
   -0.6150   -0.5766    1.9787 C   0  0  0  0  0  0  0  0  0  0  0  0
    0.1075   -1.4788    1.6563 O   0  0  0  0  0  0  0  0  0  0  0  0
   -1.9209   -0.8691    2.6995 C   0  0  0  0  0  0  0  0  0  0  0  0
    0.7075    1.7208   -0.3059 C   0  0  0  0  0  0  0  0  0  0  0  0
   -0.1701    0.8432   -1.1835 C   0  0  0  0  0  0  0  0  0  0  0  0
   -1.5540    0.9425   -1.0842 C   0  0  0  0  0  0  0  0  0  0  0  0
   -2.3610    0.1420   -1.8857 C   0  0  0  0  0  0  0  0  0  0  0  0
   -1.7726   -0.7486   -2.7781 C   0  0  0  0  0  0  0  0  0  0  0  0
   -2.5520   -1.5276   -3.5577 O   0  0  0  0  0  0  0  0  0  0  0  0
   -0.3891   -0.8520   -2.8811 C   0  0  0  0  0  0  0  0  0  0  0  0
    0.4131   -0.0489   -2.0774 C   0  0  0  0  0  0  0  0  0  0  0  0
    4.4603    4.2580    1.8296 H   0  0  0  0  0  0  0  0  0  0  0  0
    4.7665    6.4620    0.6894 H   0  0  0  0  0  0  0  0  0  0  0  0
    2.9482    8.1202    1.1070 H   0  0  0  0  0  0  0  0  0  0  0  0
    2.9499    3.2135    3.7792 H   0  0  0  0  0  0  0  0  0  0  0  0
    1.6368    4.0706    4.2352 H   0  0  0  0  0  0  0  0  0  0  0  0
    0.3340    3.0616    2.5576 H   0  0  0  0  0  0  0  0  0  0  0  0
    1.4742    0.1409    0.8075 H   0  0  0  0  0  0  0  0  0  0  0  0
   -0.8650    1.4689    1.9658 H   0  0  0  0  0  0  0  0  0  0  0  0
   -2.3951   -0.0100    2.8919 H   0  0  0  0  0  0  0  0  0  0  0  0
   -2.4982   -1.4465    2.1221 H   0  0  0  0  0  0  0  0  0  0  0  0
   -1.7284   -1.3433    3.5586 H   0  0  0  0  0  0  0  0  0  0  0  0
    0.2333    2.5799   -0.1134 H   0  0  0  0  0  0  0  0  0  0  0  0
    1.5666    1.9133   -0.7801 H   0  0  0  0  0  0  0  0  0  0  0  0
   -1.9667    1.5862   -0.4397 H   0  0  0  0  0  0  0  0  0  0  0  0
   -3.3569    0.2061   -1.8211 H   0  0  0  0  0  0  0  0  0  0  0  0
   -2.1337   -2.1692   -4.2005 H   0  0  0  0  0  0  0  0  0  0  0  0
    0.0237   -1.4961   -3.5251 H   0  0  0  0  0  0  0  0  0  0  0  0
    1.4089   -0.1127   -2.1423 H   0  0  0  0  0  0  0  0  0  0  0  0
  1  2  1  0  0  0  0
  2  3  2  0  0  0  0
  3  4  1  0  0  0  0
  4  5  2  0  0  0  0
  5  1  1  0  0  0  0
  2  6  1  0  0  0  0
  6  7  1  0  0  0  0
  7  8  1  0  0  0  0
  8  9  2  0  0  0  0
  8 10  1  0  0  0  0
 10 11  1  0  0  0  0
 11 12  1  0  0  0  0
 12 13  2  0  0  0  0
 12 14  1  0  0  0  0
 10 15  1  0  0  0  0
 15 16  1  0  0  0  0
 16 17  1  0  0  0  0
 17 18  2  0  0  0  0
 18 19  1  0  0  0  0
 19 20  1  0  0  0  0
 19 21  2  0  0  0  0
 21 22  1  0  0  0  0
 22 16  2  0  0  0  0
  3 23  1  0  0  0  0
  4 24  1  0  0  0  0
  5 25  1  0  0  0  0
  6 26  1  0  0  0  0
  6 27  1  0  0  0  0
  7 28  1  0  0  0  0
 10 29  1  0  0  0  0
 11 30  1  0  0  0  0
 14 31  1  0  0  0  0
 14 32  1  0  0  0  0
 14 33  1  0  0  0  0
 15 34  1  0  0  0  0
 15 35  1  0  0  0  0
 17 36  1  0  0  0  0
 18 37  1  0  0  0  0
 20 38  1  0  0  0  0
 21 39  1  0  0  0  0
 22 40  1  0  0  0  0
M  END
>  <result-rank>
50

>  <similarity>
0.938

>  <query-name>
LIG_A_1101_2_02

>  <query-smiles>
BrC#CCNC(=O)[C@@H](NC(=O)C)Cc1ccc(O)cc1

>  <source>
REALspace_2019-12

>  <similarity-descriptor>
1.000;0.0;0.939;0.939;1.000;1.000;1.000;1.000;1.000;1.000;1.000;1.000;0.091

>  <similarity-descriptor-smiles>
c1ccccc1;;C;C;N;C=O;C;N;C=O;C;C;O;S1C=CC=C1

>  <reaction-name>
s_22

>  <reagent1-name>
58384

>  <reagent1-smiles>
[R1*]NCC=1SC=CC1

>  <reagent2-name>
17513450

>  <reagent2-smiles>
[R1*]C(=O)C(NC(=O)C)Cc1ccc(O)cc1

$$$$
s_22____10176574____12900018
          04022015103D 1   1.00000     0.00000     0
            
 32 32  0  0  0  0            999 V2000
   -3.6217    1.0000    3.6195 Br  0  0  0  0  0  0  0  0  0  0  0  0
   -1.6617    1.0000    3.6195 C   0  0  0  0  0  0  0  0  0  0  0  0
   -1.2183   -0.0859    4.2465 F   0  0  0  0  0  0  0  0  0  0  0  0
   -1.2183    2.0859    4.2465 F   0  0  0  0  0  0  0  0  0  0  0  0
   -1.1550    1.0000    2.1865 C   0  0  0  0  0  0  0  0  0  0  0  0
    0.3150    1.0000    2.1865 N   0  0  0  0  0  0  0  0  0  0  0  0
    1.0000    1.0000    1.0000 C   0  0  0  0  0  0  0  0  0  0  0  0
    0.4000    1.0000   -0.0392 O   0  0  0  0  0  0  0  0  0  0  0  0
    2.5200    1.0000    1.0000 C   0  0  0  0  0  0  0  0  0  0  0  0
    3.0100    1.0000   -0.3859 N   0  0  0  0  0  0  0  0  0  0  0  0
    3.2434   -0.2126   -1.0460 C   0  0  0  0  0  0  0  0  0  0  0  0
    2.2184   -0.8090   -1.7736 C   0  0  0  0  0  0  0  0  0  0  0  0
    2.4541   -2.0135   -2.4281 C   0  0  0  0  0  0  0  0  0  0  0  0
    3.7069   -2.6126   -2.3521 C   0  0  0  0  0  0  0  0  0  0  0  0
    4.7243   -2.0071   -1.6223 C   0  0  0  0  0  0  0  0  0  0  0  0
    4.5003   -0.8027   -0.9635 C   0  0  0  0  0  0  0  0  0  0  0  0
    3.2383    2.1865   -1.0318 C   0  0  0  0  0  0  0  0  0  0  0  0
    3.0383    3.2257   -0.4661 O   0  0  0  0  0  0  0  0  0  0  0  0
    3.7450    2.1865   -2.4648 C   0  0  0  0  0  0  0  0  0  0  0  0
   -1.4883    0.1835    1.7151 H   0  0  0  0  0  0  0  0  0  0  0  0
   -1.4883    1.8165    1.7151 H   0  0  0  0  0  0  0  0  0  0  0  0
    0.8150    1.0000    3.0525 H   0  0  0  0  0  0  0  0  0  0  0  0
    2.8533    1.8165    1.4714 H   0  0  0  0  0  0  0  0  0  0  0  0
    2.8533    0.1835    1.4714 H   0  0  0  0  0  0  0  0  0  0  0  0
    1.3190   -0.3750   -1.8256 H   0  0  0  0  0  0  0  0  0  0  0  0
    1.7228   -2.4486   -2.9533 H   0  0  0  0  0  0  0  0  0  0  0  0
    3.8762   -3.4789   -2.8222 H   0  0  0  0  0  0  0  0  0  0  0  0
    5.6238   -2.4410   -1.5707 H   0  0  0  0  0  0  0  0  0  0  0  0
    5.2318   -0.3676   -0.4386 H   0  0  0  0  0  0  0  0  0  0  0  0
    3.8561    1.2436   -2.7791 H   0  0  0  0  0  0  0  0  0  0  0  0
    3.0863    2.6579   -3.0513 H   0  0  0  0  0  0  0  0  0  0  0  0
    4.6259    2.6579   -2.5069 H   0  0  0  0  0  0  0  0  0  0  0  0
  1  2  1  0  0  0  0
  2  3  1  0  0  0  0
  2  4  1  0  0  0  0
  2  5  1  0  0  0  0
  5  6  1  0  0  0  0
  6  7  1  0  0  0  0
  7  8  2  0  0  0  0
  7  9  1  0  0  0  0
  9 10  1  0  0  0  0
 10 11  1  0  0  0  0
 11 12  1  0  0  0  0
 12 13  2  0  0  0  0
 13 14  1  0  0  0  0
 14 15  2  0  0  0  0
 15 16  1  0  0  0  0
 16 11  2  0  0  0  0
 10 17  1  0  0  0  0
 17 18  2  0  0  0  0
 17 19  1  0  0  0  0
  5 20  1  0  0  0  0
  5 21  1  0  0  0  0
  6 22  1  0  0  0  0
  9 23  1  0  0  0  0
  9 24  1  0  0  0  0
 12 25  1  0  0  0  0
 13 26  1  0  0  0  0
 14 27  1  0  0  0  0
 15 28  1  0  0  0  0
 16 29  1  0  0  0  0
 19 30  1  0  0  0  0
 19 31  1  0  0  0  0
 19 32  1  0  0  0  0
M  END
>  <result-rank>
51

>  <similarity>
0.938

>  <query-name>
LIG_A_1101_2_02

>  <query-smiles>
BrC#CCNC(=O)[C@@H](NC(=O)C)Cc1ccc(O)cc1

>  <source>
REALspace_2019-12

>  <similarity-descriptor>
0.925;0.986;0.986;0.999;1.000;1.000;0.909;0.852;0.852;1.000;0.925;0.0;0.0

>  <similarity-descriptor-smiles>
c1ccccc1;BrC(F)F;BrC(F)F;C;N;C=O;CN;C=O;C=O;C;c1ccccc1;;

>  <reaction-name>
s_22

>  <reagent1-name>
10176574

>  <reagent1-smiles>
[R1*]NCC(Br)(F)F

>  <reagent2-name>
12900018

>  <reagent2-smiles>
[R1*]C(=O)CN(c1ccccc1)C(=O)C

$$$$
s_2708____13426432____10545754
          04022015103D 1   1.00000     0.00000     0
            
 34 34  0  0  0  0            999 V2000
    3.4521   -5.5743   -0.4340 F   0  0  0  0  0  0  0  0  0  0  0  0
    4.1165   -4.4222   -0.4334 C   0  0  0  0  0  0  0  0  0  0  0  0
    5.5075   -4.4345   -0.4339 C   0  0  0  0  0  0  0  0  0  0  0  0
    6.1914   -3.2233   -0.4335 C   0  0  0  0  0  0  0  0  0  0  0  0
    7.6114   -3.2265   -0.4342 O   0  0  0  0  0  0  0  0  0  0  0  0
    5.5085   -2.0117   -0.4332 C   0  0  0  0  0  0  0  0  0  0  0  0
    4.1181   -2.0279   -0.4331 C   0  0  0  0  0  0  0  0  0  0  0  0
    3.4097   -3.2244   -0.4331 C   0  0  0  0  0  0  0  0  0  0  0  0
    3.3583   -0.7118   -0.4331 C   0  0  0  0  0  0  0  0  0  0  0  0
    3.1050   -0.2731    1.0000 C   0  0  0  0  0  0  0  0  0  0  0  0
    2.3700    1.0000    1.0000 N   0  0  0  0  0  0  0  0  0  0  0  0
    1.0000    1.0000    1.0000 C   0  0  0  0  0  0  0  0  0  0  0  0
    0.4000   -0.0392    1.0000 O   0  0  0  0  0  0  0  0  0  0  0  0
    0.3150    2.1865    1.0000 N   0  0  0  0  0  0  0  0  0  0  0  0
   -1.1550    2.1865    1.0000 C   0  0  0  0  0  0  0  0  0  0  0  0
   -1.6617    2.1865    2.4331 C   0  0  0  0  0  0  0  0  0  0  0  0
   -1.2183    1.1005    3.0600 F   0  0  0  0  0  0  0  0  0  0  0  0
   -1.2183    3.2724    3.0600 F   0  0  0  0  0  0  0  0  0  0  0  0
   -3.1817    2.1865    2.4331 C   0  0  0  0  0  0  0  0  0  0  0  0
    6.0078   -5.3003   -0.4345 H   0  0  0  0  0  0  0  0  0  0  0  0
    8.1134   -2.3617   -0.4339 H   0  0  0  0  0  0  0  0  0  0  0  0
    6.0080   -1.1454   -0.4331 H   0  0  0  0  0  0  0  0  0  0  0  0
    2.4097   -3.2237   -0.4328 H   0  0  0  0  0  0  0  0  0  0  0  0
    2.4846   -0.8314   -0.9045 H   0  0  0  0  0  0  0  0  0  0  0  0
    3.8988   -0.0149   -0.9045 H   0  0  0  0  0  0  0  0  0  0  0  0
    2.5646   -0.9700    1.4714 H   0  0  0  0  0  0  0  0  0  0  0  0
    3.9788   -0.1535    1.4714 H   0  0  0  0  0  0  0  0  0  0  0  0
    2.8700    1.8660    1.0000 H   0  0  0  0  0  0  0  0  0  0  0  0
    0.8150    3.0525    1.0000 H   0  0  0  0  0  0  0  0  0  0  0  0
   -1.4883    1.3700    0.5286 H   0  0  0  0  0  0  0  0  0  0  0  0
   -1.4883    3.0030    0.5286 H   0  0  0  0  0  0  0  0  0  0  0  0
   -3.5150    3.0030    1.9617 H   0  0  0  0  0  0  0  0  0  0  0  0
   -3.5150    1.3700    1.9617 H   0  0  0  0  0  0  0  0  0  0  0  0
   -3.5150    2.1865    3.3759 H   0  0  0  0  0  0  0  0  0  0  0  0
  1  2  1  0  0  0  0
  2  3  1  0  0  0  0
  3  4  2  0  0  0  0
  4  5  1  0  0  0  0
  4  6  1  0  0  0  0
  6  7  2  0  0  0  0
  7  8  1  0  0  0  0
  8  2  2  0  0  0  0
  7  9  1  0  0  0  0
  9 10  1  0  0  0  0
 10 11  1  0  0  0  0
 11 12  1  0  0  0  0
 12 13  2  0  0  0  0
 12 14  1  0  0  0  0
 14 15  1  0  0  0  0
 15 16  1  0  0  0  0
 16 17  1  0  0  0  0
 16 18  1  0  0  0  0
 16 19  1  0  0  0  0
  3 20  1  0  0  0  0
  5 21  1  0  0  0  0
  6 22  1  0  0  0  0
  8 23  1  0  0  0  0
  9 24  1  0  0  0  0
  9 25  1  0  0  0  0
 10 26  1  0  0  0  0
 10 27  1  0  0  0  0
 11 28  1  0  0  0  0
 14 29  1  0  0  0  0
 15 30  1  0  0  0  0
 15 31  1  0  0  0  0
 19 32  1  0  0  0  0
 19 33  1  0  0  0  0
 19 34  1  0  0  0  0
M  END
>  <result-rank>
52

>  <similarity>
0.938

>  <query-name>
LIG_A_1101_2_02

>  <query-smiles>
BrC#CCNC(=O)[C@@H](NC(=O)C)Cc1ccc(O)cc1

>  <source>
REALspace_2019-12

>  <similarity-descriptor>
0.965;0.959;0.939;0.939;1.000;0.995;0.952;0.952;0.0;0.0;1.000;1.000;0.100

>  <similarity-descriptor-smiles>
Fc1ccccc1;C(F)F;C;C;N;C=O;CN;CN;;;C;O;C

>  <reaction-name>
s_2708

>  <reagent1-name>
13426432

>  <reagent1-smiles>
[R1*]C(=O)NCCc1cc(F)cc(O)c1

>  <reagent2-name>
10545754

>  <reagent2-smiles>
[R1*]NCC(F)(F)C

$$$$
s_22____17631962____107338
          04022015103D 1   1.00000     0.00000     0
            
 48 49  0  0  0  0            999 V2000
    3.0725    1.7997    1.7997 O   0  0  0  0  0  0  0  0  0  0  0  0
    1.8776    1.8776    1.8776 C   0  0  0  0  0  0  0  0  0  0  0  0
    1.3043    2.7574    2.7574 N   0  0  0  0  0  0  0  0  0  0  0  0
    2.1486    3.6832    3.5262 C   0  0  3  0  0  0  0  0  0  0  0  0
    1.5338    5.0729    3.4968 C   0  0  0  0  0  0  0  0  0  0  0  0
    1.0524    6.1610    3.4737 C   0  0  0  0  0  0  0  0  0  0  0  0
    2.2472    3.2019    4.9684 C   0  0  0  0  0  0  0  0  0  0  0  0
    2.8545    1.8165    5.0685 C   0  0  0  0  0  0  0  0  0  0  0  0
    1.8785    1.5668    6.1973 C   0  0  0  0  0  0  0  0  0  0  0  0
    0.9801    2.5819    5.5153 C   0  0  0  0  0  0  0  0  0  0  0  0
    1.0000    1.0000    1.0000 C   0  0  0  0  0  0  0  0  0  0  0  0
    0.7075    1.7208   -0.3059 C   0  0  3  0  0  0  0  0  0  0  0  0
   -0.5184    2.5190   -0.1610 N   0  0  0  0  0  0  0  0  0  0  0  0
   -0.4439    3.8164    0.2726 C   0  0  0  0  0  0  0  0  0  0  0  0
    0.6114    4.3877    0.2774 O   0  0  0  0  0  0  0  0  0  0  0  0
   -1.6978    4.5321    0.7478 C   0  0  0  0  0  0  0  0  0  0  0  0
    0.5195    0.7004   -1.4167 C   0  0  0  0  0  0  0  0  0  0  0  0
   -0.7511    0.1969   -1.6756 C   0  0  0  0  0  0  0  0  0  0  0  0
   -0.9280   -0.7364   -2.6916 C   0  0  0  0  0  0  0  0  0  0  0  0
    0.1698   -1.1543   -3.4372 C   0  0  0  0  0  0  0  0  0  0  0  0
   -0.0061   -2.1072   -4.4752 O   0  0  0  0  0  0  0  0  0  0  0  0
    1.1100   -2.5381   -5.2400 C   0  0  0  0  0  0  0  0  0  0  0  0
    1.4426   -0.6541   -3.1821 C   0  0  0  0  0  0  0  0  0  0  0  0
    1.6137    0.2792   -2.1653 C   0  0  0  0  0  0  0  0  0  0  0  0
    0.3115    2.7699    2.8767 H   0  0  0  0  0  0  0  0  0  0  0  0
    3.0628    3.7144    3.1220 H   0  0  0  0  0  0  0  0  0  0  0  0
    0.6479    7.0753    3.4543 H   0  0  0  0  0  0  0  0  0  0  0  0
    2.6658    3.8684    5.5854 H   0  0  0  0  0  0  0  0  0  0  0  0
    3.8182    1.7986    5.3349 H   0  0  0  0  0  0  0  0  0  0  0  0
    2.7207    1.2401    4.2624 H   0  0  0  0  0  0  0  0  0  0  0  0
    2.2052    1.8353    7.1035 H   0  0  0  0  0  0  0  0  0  0  0  0
    1.5099    0.6381    6.2375 H   0  0  0  0  0  0  0  0  0  0  0  0
    0.3659    2.2018    4.8237 H   0  0  0  0  0  0  0  0  0  0  0  0
    0.4602    3.1676    6.1371 H   0  0  0  0  0  0  0  0  0  0  0  0
    0.1409    0.8075    1.4742 H   0  0  0  0  0  0  0  0  0  0  0  0
    1.4742    0.1409    0.8075 H   0  0  0  0  0  0  0  0  0  0  0  0
    1.4727    2.3233   -0.5327 H   0  0  0  0  0  0  0  0  0  0  0  0
   -1.4068    2.1149   -0.3790 H   0  0  0  0  0  0  0  0  0  0  0  0
   -2.4811    3.9145    0.6776 H   0  0  0  0  0  0  0  0  0  0  0  0
   -1.5800    4.8142    1.7000 H   0  0  0  0  0  0  0  0  0  0  0  0
   -1.8572    5.3387    0.1785 H   0  0  0  0  0  0  0  0  0  0  0  0
   -1.5334    0.5044   -1.1339 H   0  0  0  0  0  0  0  0  0  0  0  0
   -1.8376   -1.1042   -2.8848 H   0  0  0  0  0  0  0  0  0  0  0  0
    0.8094   -3.2047   -5.9221 H   0  0  0  0  0  0  0  0  0  0  0  0
    1.5218   -1.7520   -5.7009 H   0  0  0  0  0  0  0  0  0  0  0  0
    1.7850   -2.9612   -4.6355 H   0  0  0  0  0  0  0  0  0  0  0  0
    2.2251   -0.9619   -3.7234 H   0  0  0  0  0  0  0  0  0  0  0  0
    2.5232    0.6474   -1.9723 H   0  0  0  0  0  0  0  0  0  0  0  0
  1  2  2  0  0  0  0
  2  3  1  0  0  0  0
  3  4  1  0  0  0  0
  4  5  1  0  0  0  0
  5  6  3  0  0  0  0
  4  7  1  0  0  0  0
  7  8  1  0  0  0  0
  8  9  1  0  0  0  0
  9 10  1  0  0  0  0
 10  7  1  0  0  0  0
  2 11  1  0  0  0  0
 11 12  1  0  0  0  0
 12 13  1  0  0  0  0
 13 14  1  0  0  0  0
 14 15  2  0  0  0  0
 14 16  1  0  0  0  0
 12 17  1  0  0  0  0
 17 18  1  0  0  0  0
 18 19  2  0  0  0  0
 19 20  1  0  0  0  0
 20 21  1  0  0  0  0
 21 22  1  0  0  0  0
 20 23  2  0  0  0  0
 23 24  1  0  0  0  0
 24 17  2  0  0  0  0
  3 25  1  0  0  0  0
  4 26  1  0  0  0  0
  6 27  1  0  0  0  0
  7 28  1  0  0  0  0
  8 29  1  0  0  0  0
  8 30  1  0  0  0  0
  9 31  1  0  0  0  0
  9 32  1  0  0  0  0
 10 33  1  0  0  0  0
 10 34  1  0  0  0  0
 11 35  1  0  0  0  0
 11 36  1  0  0  0  0
 12 37  1  0  0  0  0
 13 38  1  0  0  0  0
 16 39  1  0  0  0  0
 16 40  1  0  0  0  0
 16 41  1  0  0  0  0
 18 42  1  0  0  0  0
 19 43  1  0  0  0  0
 22 44  1  0  0  0  0
 22 45  1  0  0  0  0
 22 46  1  0  0  0  0
 23 47  1  0  0  0  0
 24 48  1  0  0  0  0
M  END
>  <result-rank>
53

>  <similarity>
0.937

>  <query-name>
LIG_A_1101_2_02

>  <query-smiles>
BrC#CCNC(=O)[C@@H](NC(=O)C)Cc1ccc(O)cc1

>  <source>
REALspace_2019-12

>  <similarity-descriptor>
1.000;0.911;1.000;0.952;0.952;1.000;1.000;1.000;1.000;1.000;1.000;0.704;0.143

>  <similarity-descriptor-smiles>
c1ccccc1;C;C;NC;NC;O=C;CC;N;C=O;C;CC;O;C1CCC1.C

>  <reaction-name>
s_22

>  <reagent1-name>
17631962

>  <reagent1-smiles>
[R1*]NC(C#C)C1CCC1

>  <reagent2-name>
107338

>  <reagent2-smiles>
[R1*]C(=O)CC(NC(=O)C)c1ccc(OC)cc1

$$$$
s_22____12421186____107338
          04022015103D 1   1.00000     0.00000     0
            
 50 50  0  0  0  0            999 V2000
    0.9150    1.0000    3.2257 O   0  0  0  0  0  0  0  0  0  0  0  0
    0.3150    1.0000    2.1865 C   0  0  0  0  0  0  0  0  0  0  0  0
    1.0000    1.0000    1.0000 N   0  0  0  0  0  0  0  0  0  0  0  0
    2.4700    1.0000    1.0000 C   0  0  0  0  0  0  0  0  0  0  0  0
    2.9767   -0.4331    1.0000 C   0  0  0  0  0  0  0  0  0  0  0  0
    3.3733   -1.5550    1.0000 C   0  0  0  0  0  0  0  0  0  0  0  0
    3.8800   -2.9881    1.0000 C   0  0  0  0  0  0  0  0  0  0  0  0
    5.3500   -2.9881    1.0000 N   0  3  0  0  0  0  0  0  0  0  0  0
    5.8400   -4.3740    1.0000 C   0  0  0  0  0  0  0  0  0  0  0  0
    5.8400   -2.2951   -0.2002 C   0  0  0  0  0  0  0  0  0  0  0  0
   -1.2050    1.0000    2.1865 C   0  0  0  0  0  0  0  0  0  0  0  0
   -1.7117   -0.4331    2.1865 C   0  0  3  0  0  0  0  0  0  0  0  0
   -1.2217   -1.1260    0.9862 N   0  0  0  0  0  0  0  0  0  0  0  0
   -0.0246   -1.7914    1.0201 C   0  0  0  0  0  0  0  0  0  0  0  0
    0.6239   -1.8086    2.0296 O   0  0  0  0  0  0  0  0  0  0  0  0
    0.4821   -2.5080   -0.2209 C   0  0  0  0  0  0  0  0  0  0  0  0
   -3.2317   -0.4331    2.1865 C   0  0  0  0  0  0  0  0  0  0  0  0
   -3.9161   -0.4331    0.9755 C   0  0  0  0  0  0  0  0  0  0  0  0
   -5.3069   -0.4338    0.9706 C   0  0  0  0  0  0  0  0  0  0  0  0
   -5.9966   -0.4351    2.1789 C   0  0  0  0  0  0  0  0  0  0  0  0
   -7.4166   -0.4355    2.1788 O   0  0  0  0  0  0  0  0  0  0  0  0
   -8.1267   -0.4368    3.4085 C   0  0  0  0  0  0  0  0  0  0  0  0
   -5.3170   -0.4347    3.3928 C   0  0  0  0  0  0  0  0  0  0  0  0
   -3.9262   -0.4344    3.3918 C   0  0  0  0  0  0  0  0  0  0  0  0
    5.6833   -2.5167    1.8165 H   0  0  0  0  0  0  0  0  0  0  0  0
    0.5000    1.0000    0.1340 H   0  0  0  0  0  0  0  0  0  0  0  0
    2.8033    1.4714    1.8165 H   0  0  0  0  0  0  0  0  0  0  0  0
    2.8033    1.4714    0.1835 H   0  0  0  0  0  0  0  0  0  0  0  0
    3.5467   -3.4595    1.8165 H   0  0  0  0  0  0  0  0  0  0  0  0
    3.5467   -3.4595    0.1835 H   0  0  0  0  0  0  0  0  0  0  0  0
    6.8400   -4.3740    1.0000 H   0  0  0  0  0  0  0  0  0  0  0  0
    5.5067   -4.8454    1.8165 H   0  0  0  0  0  0  0  0  0  0  0  0
    5.5067   -4.8454    0.1835 H   0  0  0  0  0  0  0  0  0  0  0  0
    6.8400   -2.2951   -0.2002 H   0  0  0  0  0  0  0  0  0  0  0  0
    5.5067   -2.7665   -1.0167 H   0  0  0  0  0  0  0  0  0  0  0  0
    5.5067   -1.3523   -0.2002 H   0  0  0  0  0  0  0  0  0  0  0  0
   -1.5383    1.4714    1.3700 H   0  0  0  0  0  0  0  0  0  0  0  0
   -1.5383    1.4714    3.0030 H   0  0  0  0  0  0  0  0  0  0  0  0
   -1.3783   -0.9045    3.0030 H   0  0  0  0  0  0  0  0  0  0  0  0
   -1.7621   -1.1117    0.1449 H   0  0  0  0  0  0  0  0  0  0  0  0
   -0.1766   -2.3930   -0.9645 H   0  0  0  0  0  0  0  0  0  0  0  0
    1.3630   -2.1208   -0.4931 H   0  0  0  0  0  0  0  0  0  0  0  0
    0.5932   -3.4816   -0.0217 H   0  0  0  0  0  0  0  0  0  0  0  0
   -3.4106   -0.4325    0.1126 H   0  0  0  0  0  0  0  0  0  0  0  0
   -5.8076   -0.4335    0.1049 H   0  0  0  0  0  0  0  0  0  0  0  0
   -9.1099   -0.4369    3.2256 H   0  0  0  0  0  0  0  0  0  0  0  0
   -7.8850   -1.2536    3.9322 H   0  0  0  0  0  0  0  0  0  0  0  0
   -7.8854    0.3793    3.9336 H   0  0  0  0  0  0  0  0  0  0  0  0
   -5.8224   -0.4347    4.2557 H   0  0  0  0  0  0  0  0  0  0  0  0
   -3.4255   -0.4351    4.2574 H   0  0  0  0  0  0  0  0  0  0  0  0
  1  2  2  0  0  0  0
  2  3  1  0  0  0  0
  3  4  1  0  0  0  0
  4  5  1  0  0  0  0
  5  6  3  0  0  0  0
  6  7  1  0  0  0  0
  7  8  1  0  0  0  0
  8  9  1  0  0  0  0
  8 10  1  0  0  0  0
  2 11  1  0  0  0  0
 11 12  1  0  0  0  0
 12 13  1  0  0  0  0
 13 14  1  0  0  0  0
 14 15  2  0  0  0  0
 14 16  1  0  0  0  0
 12 17  1  0  0  0  0
 17 18  1  0  0  0  0
 18 19  2  0  0  0  0
 19 20  1  0  0  0  0
 20 21  1  0  0  0  0
 21 22  1  0  0  0  0
 20 23  2  0  0  0  0
 23 24  1  0  0  0  0
 24 17  2  0  0  0  0
  8 25  1  0  0  0  0
  3 26  1  0  0  0  0
  4 27  1  0  0  0  0
  4 28  1  0  0  0  0
  7 29  1  0  0  0  0
  7 30  1  0  0  0  0
  9 31  1  0  0  0  0
  9 32  1  0  0  0  0
  9 33  1  0  0  0  0
 10 34  1  0  0  0  0
 10 35  1  0  0  0  0
 10 36  1  0  0  0  0
 11 37  1  0  0  0  0
 11 38  1  0  0  0  0
 12 39  1  0  0  0  0
 13 40  1  0  0  0  0
 16 41  1  0  0  0  0
 16 42  1  0  0  0  0
 16 43  1  0  0  0  0
 18 44  1  0  0  0  0
 19 45  1  0  0  0  0
 22 46  1  0  0  0  0
 22 47  1  0  0  0  0
 22 48  1  0  0  0  0
 23 49  1  0  0  0  0
 24 50  1  0  0  0  0
M  CHG  1   8   1
M  END
>  <result-rank>
54

>  <similarity>
0.937

>  <query-name>
LIG_A_1101_2_02

>  <query-smiles>
BrC#CCNC(=O)[C@@H](NC(=O)C)Cc1ccc(O)cc1

>  <source>
REALspace_2019-12

>  <similarity-descriptor>
1.000;0.846;1.000;1.000;1.000;1.000;1.000;1.000;1.000;1.000;1.000;0.704;0.294

>  <similarity-descriptor-smiles>
c1ccccc1;C;C;C;N;O=C;CC;N;C=O;C;CC;O;C.[NH+].C.C.C

>  <reaction-name>
s_22

>  <reagent1-name>
12421186

>  <reagent1-smiles>
[R1*]NCC#CCN(C)C

>  <reagent2-name>
107338

>  <reagent2-smiles>
[R1*]C(=O)CC(NC(=O)C)c1ccc(OC)cc1

$$$$
s_2430a____13259370____9866160
          04022015103D 1   1.00000     0.00000     0
            
 46 46  0  0  0  0            999 V2000
   -0.4864    4.7017   -1.3204 S   0  0  0  0  0  0  0  0  0  0  0  0
   -0.8006    3.2423   -0.5020 C   0  0  0  0  0  0  0  0  0  0  0  0
    0.2272    2.4116   -0.8364 C   0  0  0  0  0  0  0  0  0  0  0  0
    1.1872    2.9772   -1.7177 C   0  0  0  0  0  0  0  0  0  0  0  0
    0.9647    4.2645   -2.1034 C   0  0  0  0  0  0  0  0  0  0  0  0
    0.2650    1.0000   -0.2731 C   0  0  0  0  0  0  0  0  0  0  0  0
    1.0000    1.0000    1.0000 N   0  0  0  0  0  0  0  0  0  0  0  0
    0.3150    1.0000    2.1865 C   0  0  0  0  0  0  0  0  0  0  0  0
   -0.8713    0.8195    2.1943 O   0  0  0  0  0  0  0  0  0  0  0  0
    0.9844    1.2060    3.3639 N   0  0  0  0  0  0  0  0  0  0  0  0
    0.2499    1.6415    4.5605 C   0  0  3  0  0  0  0  0  0  0  0  0
    1.2187    1.7953    5.7216 C   0  0  0  0  0  0  0  0  0  0  0  0
    0.5541    2.1893    6.8042 F   0  0  0  0  0  0  0  0  0  0  0  0
    1.8090    0.6284    5.9640 F   0  0  0  0  0  0  0  0  0  0  0  0
    2.1405    2.7028    5.4126 F   0  0  0  0  0  0  0  0  0  0  0  0
   -0.4248    2.9751    4.2834 C   0  0  0  0  0  0  0  0  0  0  0  0
   -1.6965    3.0808    5.1093 C   0  0  0  0  0  0  0  0  0  0  0  0
   -0.8037    0.6043    4.9137 C   0  0  0  0  0  0  0  0  0  0  0  0
    2.4700    1.0000    1.0000 C   0  0  0  0  0  0  0  0  0  0  0  0
    2.9767   -0.4331    1.0000 C   0  0  0  0  0  0  0  0  0  0  0  0
    4.4467   -0.4331    1.0000 N   0  0  0  0  0  0  0  0  0  0  0  0
    5.1317   -1.6195    1.0000 C   0  0  0  0  0  0  0  0  0  0  0  0
    4.5317   -2.6588    1.0000 O   0  0  0  0  0  0  0  0  0  0  0  0
    6.6517   -1.6195    1.0000 C   0  0  0  0  0  0  0  0  0  0  0  0
   -1.5749    3.0379    0.0969 H   0  0  0  0  0  0  0  0  0  0  0  0
    1.9812    2.4597   -2.0367 H   0  0  0  0  0  0  0  0  0  0  0  0
    1.5263    4.8273   -2.7099 H   0  0  0  0  0  0  0  0  0  0  0  0
   -0.6689    0.6775   -0.1188 H   0  0  0  0  0  0  0  0  0  0  0  0
    0.7238    0.3940   -0.9228 H   0  0  0  0  0  0  0  0  0  0  0  0
    1.9727    1.0602    3.4093 H   0  0  0  0  0  0  0  0  0  0  0  0
   -0.6523    3.0381    3.3117 H   0  0  0  0  0  0  0  0  0  0  0  0
    0.1954    3.7199    4.5296 H   0  0  0  0  0  0  0  0  0  0  0  0
   -2.1403    3.9581    4.9271 H   0  0  0  0  0  0  0  0  0  0  0  0
   -2.3167    2.3359    4.8632 H   0  0  0  0  0  0  0  0  0  0  0  0
   -1.4690    3.0178    6.0811 H   0  0  0  0  0  0  0  0  0  0  0  0
   -1.3033    0.9006    5.7276 H   0  0  0  0  0  0  0  0  0  0  0  0
   -1.4410    0.5031    4.1498 H   0  0  0  0  0  0  0  0  0  0  0  0
   -0.3598   -0.2730    5.0959 H   0  0  0  0  0  0  0  0  0  0  0  0
    2.8033    1.4714    1.8165 H   0  0  0  0  0  0  0  0  0  0  0  0
    2.8033    1.4714    0.1835 H   0  0  0  0  0  0  0  0  0  0  0  0
    2.6433   -0.9045    1.8165 H   0  0  0  0  0  0  0  0  0  0  0  0
    2.6433   -0.9045    0.1835 H   0  0  0  0  0  0  0  0  0  0  0  0
    4.9467    0.4330    1.0000 H   0  0  0  0  0  0  0  0  0  0  0  0
    6.9850   -0.6767    1.0000 H   0  0  0  0  0  0  0  0  0  0  0  0
    6.9850   -2.0909    1.8165 H   0  0  0  0  0  0  0  0  0  0  0  0
    6.9850   -2.0909    0.1835 H   0  0  0  0  0  0  0  0  0  0  0  0
  1  2  1  0  0  0  0
  2  3  2  0  0  0  0
  3  4  1  0  0  0  0
  4  5  2  0  0  0  0
  5  1  1  0  0  0  0
  3  6  1  0  0  0  0
  6  7  1  0  0  0  0
  7  8  1  0  0  0  0
  8  9  2  0  0  0  0
  8 10  1  0  0  0  0
 10 11  1  0  0  0  0
 11 12  1  0  0  0  0
 12 13  1  0  0  0  0
 12 14  1  0  0  0  0
 12 15  1  0  0  0  0
 11 16  1  0  0  0  0
 16 17  1  0  0  0  0
 11 18  1  0  0  0  0
  7 19  1  0  0  0  0
 19 20  1  0  0  0  0
 20 21  1  0  0  0  0
 21 22  1  0  0  0  0
 22 23  2  0  0  0  0
 22 24  1  0  0  0  0
  2 25  1  0  0  0  0
  4 26  1  0  0  0  0
  5 27  1  0  0  0  0
  6 28  1  0  0  0  0
  6 29  1  0  0  0  0
 10 30  1  0  0  0  0
 16 31  1  0  0  0  0
 16 32  1  0  0  0  0
 17 33  1  0  0  0  0
 17 34  1  0  0  0  0
 17 35  1  0  0  0  0
 18 36  1  0  0  0  0
 18 37  1  0  0  0  0
 18 38  1  0  0  0  0
 19 39  1  0  0  0  0
 19 40  1  0  0  0  0
 20 41  1  0  0  0  0
 20 42  1  0  0  0  0
 21 43  1  0  0  0  0
 24 44  1  0  0  0  0
 24 45  1  0  0  0  0
 24 46  1  0  0  0  0
M  END
>  <result-rank>
55

>  <similarity>
0.936

>  <query-name>
LIG_A_1101_2_02

>  <query-smiles>
BrC#CCNC(=O)[C@@H](NC(=O)C)Cc1ccc(O)cc1

>  <source>
REALspace_2019-12

>  <similarity-descriptor>
0.882;0.990;0.988;0.988;1.000;0.995;0.952;1.000;1.000;1.000;0.952;0.0;0.133

>  <similarity-descriptor-smiles>
S1C=CC(=C1)C;C(F)(F)F;CC;CC;N;C=O;NCC;N;C=O;C;NCC;;C.C

>  <reaction-name>
s_2430a

>  <reagent1-name>
13259370

>  <reagent1-smiles>
[R1*]C(=O)NC(C(F)(F)F)(CC)C

>  <reagent2-name>
9866160

>  <reagent2-smiles>
[R1*]N(CC1=CSC=C1)CCNC(=O)C

$$$$
s_527a____12307800____16717360
          04022015103D 1   1.00000     0.00000     0
            
 48 48  0  0  0  0            999 V2000
    4.3624    7.8088    3.8221 F   0  0  0  0  0  0  0  0  0  0  0  0
    3.5945    7.0409    3.0542 C   0  0  0  0  0  0  0  0  0  0  0  0
    4.2252    6.7850    1.9116 F   0  0  0  0  0  0  0  0  0  0  0  0
    2.4519    7.6716    2.7983 F   0  0  0  0  0  0  0  0  0  0  0  0
    3.3020    5.7351    3.7751 C   0  0  0  0  0  0  0  0  0  0  0  0
    2.6712    5.9910    4.9177 F   0  0  0  0  0  0  0  0  0  0  0  0
    4.4446    5.1043    4.0310 F   0  0  0  0  0  0  0  0  0  0  0  0
    2.4244    4.8575    2.8975 C   0  0  0  0  0  0  0  0  0  0  0  0
    2.1415    3.5946    3.5946 N   0  0  0  0  0  0  0  0  0  0  0  0
    1.3043    2.7574    2.7574 N   0  0  0  0  0  0  0  0  0  0  0  0
    1.8776    1.8776    1.8776 C   0  0  0  0  0  0  0  0  0  0  0  0
    3.0725    1.7997    1.7997 O   0  0  0  0  0  0  0  0  0  0  0  0
    1.0000    1.0000    1.0000 C   0  0  3  0  0  0  0  0  0  0  0  0
    0.7171    1.6971   -0.2629 N   0  0  0  0  0  0  0  0  0  0  0  0
    1.5540    1.5376   -1.3358 C   0  0  0  0  0  0  0  0  0  0  0  0
    2.5180    0.8288   -1.2446 O   0  0  0  0  0  0  0  0  0  0  0  0
    1.2615    2.2584   -2.6416 C   0  0  0  0  0  0  0  0  0  0  0  0
    1.9216    3.5718   -2.6349 N   0  0  0  0  0  0  0  0  0  0  0  0
    3.1979    3.6995   -3.1161 C   0  0  0  0  0  0  0  0  0  0  0  0
    3.7770    2.7391   -3.5431 O   0  0  0  0  0  0  0  0  0  0  0  0
    3.8805    5.0576   -3.1091 C   0  0  0  0  0  0  0  0  0  0  0  0
   -0.3059    0.7075    1.7208 C   0  0  0  0  0  0  0  0  0  0  0  0
   -1.1835   -0.1701    0.8432 C   0  0  0  0  0  0  0  0  0  0  0  0
   -1.0842   -1.5540    0.9425 C   0  0  0  0  0  0  0  0  0  0  0  0
   -1.8857   -2.3610    0.1420 C   0  0  0  0  0  0  0  0  0  0  0  0
   -2.7781   -1.7726   -0.7486 C   0  0  0  0  0  0  0  0  0  0  0  0
   -3.5982   -2.5925   -1.5681 O   0  0  0  0  0  0  0  0  0  0  0  0
   -2.8811   -0.3891   -0.8520 C   0  0  0  0  0  0  0  0  0  0  0  0
   -2.0774    0.4131   -0.0489 C   0  0  0  0  0  0  0  0  0  0  0  0
    1.5653    5.3317    2.7050 H   0  0  0  0  0  0  0  0  0  0  0  0
    2.8986    4.6650    2.0384 H   0  0  0  0  0  0  0  0  0  0  0  0
    3.0006    3.1204    3.7870 H   0  0  0  0  0  0  0  0  0  0  0  0
    0.3085    2.8223    2.8223 H   0  0  0  0  0  0  0  0  0  0  0  0
    1.4742    0.1409    0.8075 H   0  0  0  0  0  0  0  0  0  0  0  0
   -0.0862    2.2878   -0.3389 H   0  0  0  0  0  0  0  0  0  0  0  0
    1.6074    1.7154   -3.4068 H   0  0  0  0  0  0  0  0  0  0  0  0
    0.2741    2.3821   -2.7402 H   0  0  0  0  0  0  0  0  0  0  0  0
    1.4390    4.3721   -2.2790 H   0  0  0  0  0  0  0  0  0  0  0  0
    3.2604    5.7403   -2.7226 H   0  0  0  0  0  0  0  0  0  0  0  0
    4.7114    5.0102   -2.5546 H   0  0  0  0  0  0  0  0  0  0  0  0
    4.1188    5.3157   -4.0453 H   0  0  0  0  0  0  0  0  0  0  0  0
   -0.1134    0.2333    2.5799 H   0  0  0  0  0  0  0  0  0  0  0  0
   -0.7801    1.5666    1.9133 H   0  0  0  0  0  0  0  0  0  0  0  0
   -0.4397   -1.9667    1.5862 H   0  0  0  0  0  0  0  0  0  0  0  0
   -1.8211   -3.3569    0.2061 H   0  0  0  0  0  0  0  0  0  0  0  0
   -4.2411   -2.1742   -2.2097 H   0  0  0  0  0  0  0  0  0  0  0  0
   -3.5251    0.0237   -1.4961 H   0  0  0  0  0  0  0  0  0  0  0  0
   -2.1423    1.4089   -0.1127 H   0  0  0  0  0  0  0  0  0  0  0  0
  1  2  1  0  0  0  0
  2  3  1  0  0  0  0
  2  4  1  0  0  0  0
  2  5  1  0  0  0  0
  5  6  1  0  0  0  0
  5  7  1  0  0  0  0
  5  8  1  0  0  0  0
  8  9  1  0  0  0  0
  9 10  1  0  0  0  0
 10 11  1  0  0  0  0
 11 12  2  0  0  0  0
 11 13  1  0  0  0  0
 13 14  1  0  0  0  0
 14 15  1  0  0  0  0
 15 16  2  0  0  0  0
 15 17  1  0  0  0  0
 17 18  1  0  0  0  0
 18 19  1  0  0  0  0
 19 20  2  0  0  0  0
 19 21  1  0  0  0  0
 13 22  1  0  0  0  0
 22 23  1  0  0  0  0
 23 24  1  0  0  0  0
 24 25  2  0  0  0  0
 25 26  1  0  0  0  0
 26 27  1  0  0  0  0
 26 28  2  0  0  0  0
 28 29  1  0  0  0  0
 29 23  2  0  0  0  0
  8 30  1  0  0  0  0
  8 31  1  0  0  0  0
  9 32  1  0  0  0  0
 10 33  1  0  0  0  0
 13 34  1  0  0  0  0
 14 35  1  0  0  0  0
 17 36  1  0  0  0  0
 17 37  1  0  0  0  0
 18 38  1  0  0  0  0
 21 39  1  0  0  0  0
 21 40  1  0  0  0  0
 21 41  1  0  0  0  0
 22 42  1  0  0  0  0
 22 43  1  0  0  0  0
 24 44  1  0  0  0  0
 25 45  1  0  0  0  0
 27 46  1  0  0  0  0
 28 47  1  0  0  0  0
 29 48  1  0  0  0  0
M  END
>  <result-rank>
56

>  <similarity>
0.936

>  <query-name>
LIG_A_1101_2_02

>  <query-smiles>
BrC#CCNC(=O)[C@@H](NC(=O)C)Cc1ccc(O)cc1

>  <source>
REALspace_2019-12

>  <similarity-descriptor>
1.000;0.990;0.942;0.942;0.742;0.847;1.000;1.000;1.000;0.955;1.000;1.000;0.188

>  <similarity-descriptor-smiles>
c1ccccc1;FC(F)F;C(F)(F)C;C(F)(F)C;N;NC=O;C;N;C=O;C;C;O;N.C=O.C

>  <reaction-name>
s_527a

>  <reagent1-name>
12307800

>  <reagent1-smiles>
[R1*]NNCC(F)(F)C(F)(F)F

>  <reagent2-name>
16717360

>  <reagent2-smiles>
[R1*]C(=O)C(NC(=O)CNC(=O)C)Cc1ccc(O)cc1

$$$$
s_8____5534988____2563044
          04022015103D 1   1.00000     0.00000     0
            
 37 37  0  0  0  0            999 V2000
    0.1750   -0.4289    1.0000 S   0  0  0  0  0  0  0  0  0  0  0  0
    1.0000    1.0000    1.0000 C   0  0  0  0  0  0  0  0  0  0  0  0
    2.3700    1.0000    1.0000 N   0  0  0  0  0  0  0  0  0  0  0  0
    3.1050    2.2731    1.0000 C   0  0  0  0  0  0  0  0  0  0  0  0
    3.1428    2.8364    2.4116 C   0  0  0  0  0  0  0  0  0  0  0  0
    4.1906    2.4967    3.2612 C   0  0  0  0  0  0  0  0  0  0  0  0
    4.2209    3.0137    4.5523 C   0  0  0  0  0  0  0  0  0  0  0  0
    3.2091    3.8646    4.9847 C   0  0  0  0  0  0  0  0  0  0  0  0
    2.1678    4.1974    4.1272 C   0  0  0  0  0  0  0  0  0  0  0  0
    2.1257    3.6865    2.8340 C   0  0  0  0  0  0  0  0  0  0  0  0
    3.1050   -0.2731    1.0000 C   0  0  0  0  0  0  0  0  0  0  0  0
    3.5738   -0.5874   -0.4113 C   0  0  3  0  0  0  0  0  0  0  0  0
    2.4490   -0.6903   -1.2719 O   0  0  0  0  0  0  0  0  0  0  0  0
    4.3338   -1.9038   -0.4113 C   0  0  0  0  0  0  0  0  0  0  0  0
    0.3150    2.1865    1.0000 N   0  0  0  0  0  0  0  0  0  0  0  0
   -1.1550    2.1865    1.0000 C   0  0  0  0  0  0  0  0  0  0  0  0
   -1.6617    3.6195    1.0000 C   0  0  0  0  0  0  0  0  0  0  0  0
   -2.9917    3.6195    1.0000 F   0  0  0  0  0  0  0  0  0  0  0  0
   -1.2183    4.2465    2.0859 F   0  0  0  0  0  0  0  0  0  0  0  0
   -1.2183    4.2465   -0.0859 F   0  0  0  0  0  0  0  0  0  0  0  0
    2.6462    2.9228    0.3940 H   0  0  0  0  0  0  0  0  0  0  0  0
    4.0389    2.1188    0.6775 H   0  0  0  0  0  0  0  0  0  0  0  0
    4.9166    1.8854    2.9462 H   0  0  0  0  0  0  0  0  0  0  0  0
    4.9701    2.7736    5.1695 H   0  0  0  0  0  0  0  0  0  0  0  0
    3.2312    4.2368    5.9126 H   0  0  0  0  0  0  0  0  0  0  0  0
    1.4424    4.8094    4.4423 H   0  0  0  0  0  0  0  0  0  0  0  0
    1.3759    3.9266    2.2175 H   0  0  0  0  0  0  0  0  0  0  0  0
    2.5044   -1.0047    1.3225 H   0  0  0  0  0  0  0  0  0  0  0  0
    3.8971   -0.2006    1.6060 H   0  0  0  0  0  0  0  0  0  0  0  0
    4.1744    0.1442   -0.7338 H   0  0  0  0  0  0  0  0  0  0  0  0
    2.7575   -0.8971   -2.2003 H   0  0  0  0  0  0  0  0  0  0  0  0
    5.1260   -1.8313    0.1947 H   0  0  0  0  0  0  0  0  0  0  0  0
    3.7333   -2.6354   -0.0888 H   0  0  0  0  0  0  0  0  0  0  0  0
    4.6423   -2.1106   -1.3398 H   0  0  0  0  0  0  0  0  0  0  0  0
    0.8150    3.0525    1.0000 H   0  0  0  0  0  0  0  0  0  0  0  0
   -1.4883    1.7151    1.8165 H   0  0  0  0  0  0  0  0  0  0  0  0
   -1.4883    1.7151    0.1835 H   0  0  0  0  0  0  0  0  0  0  0  0
  1  2  2  0  0  0  0
  2  3  1  0  0  0  0
  3  4  1  0  0  0  0
  4  5  1  0  0  0  0
  5  6  1  0  0  0  0
  6  7  2  0  0  0  0
  7  8  1  0  0  0  0
  8  9  2  0  0  0  0
  9 10  1  0  0  0  0
 10  5  2  0  0  0  0
  3 11  1  0  0  0  0
 11 12  1  0  0  0  0
 12 13  1  0  0  0  0
 12 14  1  0  0  0  0
  2 15  1  0  0  0  0
 15 16  1  0  0  0  0
 16 17  1  0  0  0  0
 17 18  1  0  0  0  0
 17 19  1  0  0  0  0
 17 20  1  0  0  0  0
  4 21  1  0  0  0  0
  4 22  1  0  0  0  0
  6 23  1  0  0  0  0
  7 24  1  0  0  0  0
  8 25  1  0  0  0  0
  9 26  1  0  0  0  0
 10 27  1  0  0  0  0
 11 28  1  0  0  0  0
 11 29  1  0  0  0  0
 12 30  1  0  0  0  0
 13 31  1  0  0  0  0
 14 32  1  0  0  0  0
 14 33  1  0  0  0  0
 14 34  1  0  0  0  0
 15 35  1  0  0  0  0
 16 36  1  0  0  0  0
 16 37  1  0  0  0  0
M  END
>  <result-rank>
57

>  <similarity>
0.934

>  <query-name>
LIG_A_1101_2_02

>  <query-smiles>
BrC#CCNC(=O)[C@@H](NC(=O)C)Cc1ccc(O)cc1

>  <source>
REALspace_2019-12

>  <similarity-descriptor>
0.960;0.968;0.968;0.996;0.996;0.848;0.951;0.856;0.856;1.000;0.951;0.0;0.0

>  <similarity-descriptor-smiles>
c1ccccc1;C(F)(F)F;C(F)(F)F;NC;NC;S=C;N(C)C;CO;CO;C;N(C)C;;

>  <reaction-name>
s_8

>  <reagent1-name>
5534988

>  <reagent1-smiles>
[R1*]N(Cc1ccccc1)CC(O)C

>  <reagent2-name>
2563044

>  <reagent2-smiles>
[R1*]C(=S)NCC(F)(F)F

$$$$
s_269946a____7297346____17513468
          04022015103D 1   1.00000     0.00000     0
            
 38 38  0  0  0  0            999 V2000
   -1.8633   -1.0035    3.2343 O   0  5  0  0  0  0  0  0  0  0  0  0
   -1.6617   -0.4331    2.1865 C   0  0  0  0  0  0  0  0  0  0  0  0
   -1.8700   -1.0223    1.1039 O   0  0  0  0  0  0  0  0  0  0  0  0
   -1.1550    1.0000    2.1865 C   0  0  0  0  0  0  0  0  0  0  0  0
    0.3150    1.0000    2.1865 N   0  0  0  0  0  0  0  0  0  0  0  0
    1.0000    1.0000    1.0000 C   0  0  0  0  0  0  0  0  0  0  0  0
    0.4000    1.0000   -0.0392 O   0  0  0  0  0  0  0  0  0  0  0  0
    2.5200    1.0000    1.0000 C   0  0  3  0  0  0  0  0  0  0  0  0
    3.0100    1.6930   -0.2002 N   0  0  0  0  0  0  0  0  0  0  0  0
    3.2383    3.0434   -0.1663 C   0  0  0  0  0  0  0  0  0  0  0  0
    3.0383    3.6605    0.8432 O   0  0  0  0  0  0  0  0  0  0  0  0
    3.7450    3.7599   -1.4074 C   0  0  0  0  0  0  0  0  0  0  0  0
    3.0267   -0.4331    1.0000 C   0  0  0  0  0  0  0  0  0  0  0  0
    4.5467   -0.4331    1.0000 C   0  0  0  0  0  0  0  0  0  0  0  0
    5.2311   -0.4331    2.2110 C   0  0  0  0  0  0  0  0  0  0  0  0
    6.6219   -0.4338    2.2159 C   0  0  0  0  0  0  0  0  0  0  0  0
    7.3116   -0.4351    1.0075 C   0  0  0  0  0  0  0  0  0  0  0  0
    8.7316   -0.4355    1.0077 O   0  0  0  0  0  0  0  0  0  0  0  0
    6.6320   -0.4347   -0.2063 C   0  0  0  0  0  0  0  0  0  0  0  0
    5.2412   -0.4344   -0.2053 C   0  0  0  0  0  0  0  0  0  0  0  0
    1.0500    1.0000    3.4595 C   0  0  0  0  0  0  0  0  0  0  0  0
   -1.4883    1.4714    1.3700 H   0  0  0  0  0  0  0  0  0  0  0  0
   -1.4883    1.4714    3.0030 H   0  0  0  0  0  0  0  0  0  0  0  0
    2.8533    1.4714    1.8165 H   0  0  0  0  0  0  0  0  0  0  0  0
    3.1767    1.1787   -1.0415 H   0  0  0  0  0  0  0  0  0  0  0  0
    3.8561    3.1005   -2.1510 H   0  0  0  0  0  0  0  0  0  0  0  0
    3.0863    4.4614   -1.6796 H   0  0  0  0  0  0  0  0  0  0  0  0
    4.6259    4.1892   -1.2082 H   0  0  0  0  0  0  0  0  0  0  0  0
    2.6933   -0.9045    1.8165 H   0  0  0  0  0  0  0  0  0  0  0  0
    2.6933   -0.9045    0.1835 H   0  0  0  0  0  0  0  0  0  0  0  0
    4.7256   -0.4325    3.0738 H   0  0  0  0  0  0  0  0  0  0  0  0
    7.1226   -0.4335    3.0815 H   0  0  0  0  0  0  0  0  0  0  0  0
    9.2317   -0.4364    0.1417 H   0  0  0  0  0  0  0  0  0  0  0  0
    7.1374   -0.4347   -1.0692 H   0  0  0  0  0  0  0  0  0  0  0  0
    4.7405   -0.4351   -1.0710 H   0  0  0  0  0  0  0  0  0  0  0  0
    0.4002    1.0000    4.2196 H   0  0  0  0  0  0  0  0  0  0  0  0
    1.6249    0.1835    3.5125 H   0  0  0  0  0  0  0  0  0  0  0  0
    1.6249    1.8165    3.5125 H   0  0  0  0  0  0  0  0  0  0  0  0
  1  2  1  0  0  0  0
  2  3  2  0  0  0  0
  2  4  1  0  0  0  0
  4  5  1  0  0  0  0
  5  6  1  0  0  0  0
  6  7  2  0  0  0  0
  6  8  1  0  0  0  0
  8  9  1  0  0  0  0
  9 10  1  0  0  0  0
 10 11  2  0  0  0  0
 10 12  1  0  0  0  0
  8 13  1  0  0  0  0
 13 14  1  0  0  0  0
 14 15  1  0  0  0  0
 15 16  2  0  0  0  0
 16 17  1  0  0  0  0
 17 18  1  0  0  0  0
 17 19  2  0  0  0  0
 19 20  1  0  0  0  0
 20 14  2  0  0  0  0
  5 21  1  0  0  0  0
  4 22  1  0  0  0  0
  4 23  1  0  0  0  0
  8 24  1  0  0  0  0
  9 25  1  0  0  0  0
 12 26  1  0  0  0  0
 12 27  1  0  0  0  0
 12 28  1  0  0  0  0
 13 29  1  0  0  0  0
 13 30  1  0  0  0  0
 15 31  1  0  0  0  0
 16 32  1  0  0  0  0
 18 33  1  0  0  0  0
 19 34  1  0  0  0  0
 20 35  1  0  0  0  0
 21 36  1  0  0  0  0
 21 37  1  0  0  0  0
 21 38  1  0  0  0  0
M  CHG  1   1  -1
M  END
>  <result-rank>
58

>  <similarity>
0.934

>  <query-name>
LIG_A_1101_2_02

>  <query-smiles>
BrC#CCNC(=O)[C@@H](NC(=O)C)Cc1ccc(O)cc1

>  <source>
REALspace_2019-12

>  <similarity-descriptor>
1.000;0.901;0.901;0.901;0.852;0.852;1.000;1.000;1.000;1.000;1.000;1.000;0.167

>  <similarity-descriptor-smiles>
c1ccccc1;NC;NC;NC;C=O;C=O;C;N;C=O;C;C;O;[O-]C=O.C

>  <reaction-name>
s_269946a

>  <reagent1-name>
7297346

>  <reagent1-smiles>
[R1*]N(CC(=O)O)C

>  <reagent2-name>
17513468

>  <reagent2-smiles>
[R1*]C(=O)C(NC(=O)C)Cc1ccc(O)cc1

$$$$
EN300-09603
          04022015103D 1   1.00000     0.00000     0
            
 30 30  0  0  0  0            999 V2000
   -1.7983   -0.6782    2.1865 Cl  0  0  0  0  0  0  0  0  0  0  0  0
   -1.2050    1.0000    2.1865 C   0  0  0  0  0  0  0  0  0  0  0  0
    0.3150    1.0000    2.1865 C   0  0  0  0  0  0  0  0  0  0  0  0
    0.9150    1.0000    3.2257 O   0  0  0  0  0  0  0  0  0  0  0  0
    1.0000    1.0000    1.0000 N   0  0  0  0  0  0  0  0  0  0  0  0
    2.4700    1.0000    1.0000 C   0  0  3  0  0  0  0  0  0  0  0  0
    2.9767    2.2411    0.2835 C   0  0  0  0  0  0  0  0  0  0  0  0
    3.9272    2.8352    0.7118 O   0  0  0  0  0  0  0  0  0  0  0  0
    2.2793    2.7296   -0.9756 C   0  0  0  0  0  0  0  0  0  0  0  0
    2.9767   -0.2411    0.2835 C   0  0  0  0  0  0  0  0  0  0  0  0
    4.4970   -0.2411    0.2835 C   0  0  0  0  0  0  0  0  0  0  0  0
    5.1860   -0.8453    1.3299 C   0  0  0  0  0  0  0  0  0  0  0  0
    6.5771   -0.8423    1.3265 C   0  0  0  0  0  0  0  0  0  0  0  0
    7.2687   -0.2393    0.2811 C   0  0  0  0  0  0  0  0  0  0  0  0
    6.5699    0.3607   -0.7592 C   0  0  0  0  0  0  0  0  0  0  0  0
    5.1789    0.3650   -0.7670 C   0  0  0  0  0  0  0  0  0  0  0  0
   -1.5383    1.4714    3.0030 H   0  0  0  0  0  0  0  0  0  0  0  0
   -1.5383    1.4714    1.3700 H   0  0  0  0  0  0  0  0  0  0  0  0
    0.5000    1.0000    0.1340 H   0  0  0  0  0  0  0  0  0  0  0  0
    2.8033    1.0000    1.9428 H   0  0  0  0  0  0  0  0  0  0  0  0
    1.5137    2.1229   -1.1895 H   0  0  0  0  0  0  0  0  0  0  0  0
    1.9378    3.6580   -0.8287 H   0  0  0  0  0  0  0  0  0  0  0  0
    2.9275    2.7295   -1.7371 H   0  0  0  0  0  0  0  0  0  0  0  0
    2.6433   -1.0576    0.7549 H   0  0  0  0  0  0  0  0  0  0  0  0
    2.6433   -0.2411   -0.6593 H   0  0  0  0  0  0  0  0  0  0  0  0
    4.6851   -1.2785    2.0792 H   0  0  0  0  0  0  0  0  0  0  0  0
    7.0799   -1.2736    2.0755 H   0  0  0  0  0  0  0  0  0  0  0  0
    8.2687   -0.2377    0.2782 H   0  0  0  0  0  0  0  0  0  0  0  0
    7.0712    0.7932   -1.5087 H   0  0  0  0  0  0  0  0  0  0  0  0
    4.6768    0.7970   -1.5161 H   0  0  0  0  0  0  0  0  0  0  0  0
  1  2  1  0  0  0  0
  2  3  1  0  0  0  0
  3  4  2  0  0  0  0
  3  5  1  0  0  0  0
  5  6  1  0  0  0  0
  6  7  1  0  0  0  0
  7  8  2  0  0  0  0
  7  9  1  0  0  0  0
  6 10  1  0  0  0  0
 10 11  1  0  0  0  0
 11 12  1  0  0  0  0
 12 13  2  0  0  0  0
 13 14  1  0  0  0  0
 14 15  2  0  0  0  0
 15 16  1  0  0  0  0
 16 11  2  0  0  0  0
  2 17  1  0  0  0  0
  2 18  1  0  0  0  0
  5 19  1  0  0  0  0
  6 20  1  0  0  0  0
  9 21  1  0  0  0  0
  9 22  1  0  0  0  0
  9 23  1  0  0  0  0
 10 24  1  0  0  0  0
 10 25  1  0  0  0  0
 12 26  1  0  0  0  0
 13 27  1  0  0  0  0
 14 28  1  0  0  0  0
 15 29  1  0  0  0  0
 16 30  1  0  0  0  0
M  END
>  <result-rank>
59

>  <similarity>
0.934

>  <query-name>
LIG_A_1101_2_02

>  <query-smiles>
BrC#CCNC(=O)[C@@H](NC(=O)C)Cc1ccc(O)cc1

>  <source>
REALspace_2019-12

>  <similarity-descriptor>
0.960;0.925;0.925;0.925;0.852;0.852;1.000;1.000;0.907;1.000;1.000;0.0;0.0

>  <similarity-descriptor-smiles>
c1ccccc1;ClC;ClC;ClC;C=O;C=O;NC;NC;C=O;C;C;;

$$$$
s_276436a____14085676____17513464
          04022015103D 1   1.00000     0.00000     0
            
 42 42  0  0  0  0            999 V2000
    2.4833   -1.0600    2.0859 F   0  0  0  0  0  0  0  0  0  0  0  0
    2.9267   -0.4331    1.0000 C   0  0  0  0  0  0  0  0  0  0  0  0
    2.4833   -1.0600   -0.0859 F   0  0  0  0  0  0  0  0  0  0  0  0
    2.4200    1.0000    1.0000 C   0  0  0  0  0  0  0  0  0  0  0  0
    1.0000    1.0000    1.0000 O   0  0  0  0  0  0  0  0  0  0  0  0
    0.3450    1.0000    2.1345 C   0  0  0  0  0  0  0  0  0  0  0  0
    0.9450    1.0000    3.1737 O   0  0  0  0  0  0  0  0  0  0  0  0
   -1.1750    1.0000    2.1345 C   0  0  3  0  0  0  0  0  0  0  0  0
   -1.6650    1.0000    3.5204 N   0  0  0  0  0  0  0  0  0  0  0  0
   -2.4526    2.0275    3.9685 C   0  0  0  0  0  0  0  0  0  0  0  0
   -2.7425    2.9275    3.2296 O   0  0  0  0  0  0  0  0  0  0  0  0
   -2.9593    2.0275    5.4016 C   0  0  0  0  0  0  0  0  0  0  0  0
   -1.6817   -0.2411    1.4180 C   0  0  0  0  0  0  0  0  0  0  0  0
   -3.2017   -0.2411    1.4180 C   0  0  0  0  0  0  0  0  0  0  0  0
   -3.8861    0.3644    0.3692 C   0  0  0  0  0  0  0  0  0  0  0  0
   -5.2769    0.3662    0.3646 C   0  0  0  0  0  0  0  0  0  0  0  0
   -5.9666   -0.2391    1.4104 C   0  0  0  0  0  0  0  0  0  0  0  0
   -7.3164   -0.2393    1.4101 O   0  0  0  0  0  0  0  0  0  0  0  0
   -5.2870   -0.8457    2.4618 C   0  0  0  0  0  0  0  0  0  0  0  0
   -3.8962   -0.8449    2.4611 C   0  0  0  0  0  0  0  0  0  0  0  0
    4.4467   -0.4331    1.0000 C   0  0  0  0  0  0  0  0  0  0  0  0
    4.9533   -1.8661    1.0000 C   0  0  0  0  0  0  0  0  0  0  0  0
    5.7007   -2.2913    0.0250 C   0  0  0  0  0  0  0  0  0  0  0  0
    2.7533    1.4714    1.8165 H   0  0  0  0  0  0  0  0  0  0  0  0
    2.7533    1.4714    0.1835 H   0  0  0  0  0  0  0  0  0  0  0  0
   -1.5083    1.8165    1.6631 H   0  0  0  0  0  0  0  0  0  0  0  0
   -1.4234    0.2500    4.1362 H   0  0  0  0  0  0  0  0  0  0  0  0
   -2.6260    1.2110    5.8730 H   0  0  0  0  0  0  0  0  0  0  0  0
   -2.6260    2.8440    5.8730 H   0  0  0  0  0  0  0  0  0  0  0  0
   -3.9593    2.0275    5.4016 H   0  0  0  0  0  0  0  0  0  0  0  0
   -1.3483   -0.2411    0.4751 H   0  0  0  0  0  0  0  0  0  0  0  0
   -1.3483   -1.0576    1.8894 H   0  0  0  0  0  0  0  0  0  0  0  0
   -3.3806    0.7963   -0.3777 H   0  0  0  0  0  0  0  0  0  0  0  0
   -5.7776    0.7993   -0.3849 H   0  0  0  0  0  0  0  0  0  0  0  0
   -7.8165   -0.6731    2.1596 H   0  0  0  0  0  0  0  0  0  0  0  0
   -5.7924   -1.2771    3.2091 H   0  0  0  0  0  0  0  0  0  0  0  0
   -3.3955   -1.2783    3.2104 H   0  0  0  0  0  0  0  0  0  0  0  0
    4.7800    0.0383    0.1835 H   0  0  0  0  0  0  0  0  0  0  0  0
    4.7800    0.0383    1.8165 H   0  0  0  0  0  0  0  0  0  0  0  0
    4.7118   -2.4819    1.7500 H   0  0  0  0  0  0  0  0  0  0  0  0
    6.0341   -3.2341    0.0250 H   0  0  0  0  0  0  0  0  0  0  0  0
    5.9423   -1.6756   -0.7250 H   0  0  0  0  0  0  0  0  0  0  0  0
  1  2  1  0  0  0  0
  2  3  1  0  0  0  0
  2  4  1  0  0  0  0
  4  5  1  0  0  0  0
  5  6  1  0  0  0  0
  6  7  2  0  0  0  0
  6  8  1  0  0  0  0
  8  9  1  0  0  0  0
  9 10  1  0  0  0  0
 10 11  2  0  0  0  0
 10 12  1  0  0  0  0
  8 13  1  0  0  0  0
 13 14  1  0  0  0  0
 14 15  1  0  0  0  0
 15 16  2  0  0  0  0
 16 17  1  0  0  0  0
 17 18  1  0  0  0  0
 17 19  2  0  0  0  0
 19 20  1  0  0  0  0
 20 14  2  0  0  0  0
  2 21  1  0  0  0  0
 21 22  1  0  0  0  0
 22 23  2  0  0  0  0
  4 24  1  0  0  0  0
  4 25  1  0  0  0  0
  8 26  1  0  0  0  0
  9 27  1  0  0  0  0
 12 28  1  0  0  0  0
 12 29  1  0  0  0  0
 12 30  1  0  0  0  0
 13 31  1  0  0  0  0
 13 32  1  0  0  0  0
 15 33  1  0  0  0  0
 16 34  1  0  0  0  0
 18 35  1  0  0  0  0
 19 36  1  0  0  0  0
 20 37  1  0  0  0  0
 21 38  1  0  0  0  0
 21 39  1  0  0  0  0
 22 40  1  0  0  0  0
 23 41  1  0  0  0  0
 23 42  1  0  0  0  0
M  END
>  <result-rank>
60

>  <similarity>
0.933

>  <query-name>
LIG_A_1101_2_02

>  <query-smiles>
BrC#CCNC(=O)[C@@H](NC(=O)C)Cc1ccc(O)cc1

>  <source>
REALspace_2019-12

>  <similarity-descriptor>
1.000;0.959;0.940;0.940;0.283;0.998;1.000;1.000;1.000;1.000;1.000;1.000;0.214

>  <similarity-descriptor-smiles>
c1ccccc1;FCF;C;C;O;C=O;C;N;C=O;C;C;O;C.C.C

>  <reaction-name>
s_276436a

>  <reagent1-name>
14085676

>  <reagent1-smiles>
[R1*]OCC(F)(F)CC=C

>  <reagent2-name>
17513464

>  <reagent2-smiles>
[R1*]C(=O)C(NC(=O)C)Cc1ccc(O)cc1

$$$$
s_276436a____16913726____17513464
          04022015103D 1   1.00000     0.00000     0
            
 42 42  0  0  0  0            999 V2000
    2.4833   -1.0600    2.0859 F   0  0  0  0  0  0  0  0  0  0  0  0
    2.9267   -0.4331    1.0000 C   0  0  0  0  0  0  0  0  0  0  0  0
    2.4833   -1.0600   -0.0859 F   0  0  0  0  0  0  0  0  0  0  0  0
    2.4200    1.0000    1.0000 C   0  0  0  0  0  0  0  0  0  0  0  0
    1.0000    1.0000    1.0000 O   0  0  0  0  0  0  0  0  0  0  0  0
    0.3450    1.0000    2.1345 C   0  0  0  0  0  0  0  0  0  0  0  0
    0.9450    1.0000    3.1737 O   0  0  0  0  0  0  0  0  0  0  0  0
   -1.1750    1.0000    2.1345 C   0  0  3  0  0  0  0  0  0  0  0  0
   -1.6650    1.0000    3.5204 N   0  0  0  0  0  0  0  0  0  0  0  0
   -2.4526    2.0275    3.9685 C   0  0  0  0  0  0  0  0  0  0  0  0
   -2.7425    2.9275    3.2296 O   0  0  0  0  0  0  0  0  0  0  0  0
   -2.9593    2.0275    5.4016 C   0  0  0  0  0  0  0  0  0  0  0  0
   -1.6817   -0.2411    1.4180 C   0  0  0  0  0  0  0  0  0  0  0  0
   -3.2017   -0.2411    1.4180 C   0  0  0  0  0  0  0  0  0  0  0  0
   -3.8861    0.3644    0.3692 C   0  0  0  0  0  0  0  0  0  0  0  0
   -5.2769    0.3662    0.3646 C   0  0  0  0  0  0  0  0  0  0  0  0
   -5.9666   -0.2391    1.4104 C   0  0  0  0  0  0  0  0  0  0  0  0
   -7.3164   -0.2393    1.4101 O   0  0  0  0  0  0  0  0  0  0  0  0
   -5.2870   -0.8457    2.4618 C   0  0  0  0  0  0  0  0  0  0  0  0
   -3.8962   -0.8449    2.4611 C   0  0  0  0  0  0  0  0  0  0  0  0
    4.4467   -0.4331    1.0000 C   0  0  0  0  0  0  0  0  0  0  0  0
    4.9200   -1.7719    1.0000 O   0  0  0  0  0  0  0  0  0  0  0  0
    6.3400   -1.7719    1.0000 C   0  0  0  0  0  0  0  0  0  0  0  0
    2.7533    1.4714    1.8165 H   0  0  0  0  0  0  0  0  0  0  0  0
    2.7533    1.4714    0.1835 H   0  0  0  0  0  0  0  0  0  0  0  0
   -1.5083    1.8165    1.6631 H   0  0  0  0  0  0  0  0  0  0  0  0
   -1.4234    0.2500    4.1362 H   0  0  0  0  0  0  0  0  0  0  0  0
   -2.6260    1.2110    5.8730 H   0  0  0  0  0  0  0  0  0  0  0  0
   -2.6260    2.8440    5.8730 H   0  0  0  0  0  0  0  0  0  0  0  0
   -3.9593    2.0275    5.4016 H   0  0  0  0  0  0  0  0  0  0  0  0
   -1.3483   -0.2411    0.4751 H   0  0  0  0  0  0  0  0  0  0  0  0
   -1.3483   -1.0576    1.8894 H   0  0  0  0  0  0  0  0  0  0  0  0
   -3.3806    0.7963   -0.3777 H   0  0  0  0  0  0  0  0  0  0  0  0
   -5.7776    0.7993   -0.3849 H   0  0  0  0  0  0  0  0  0  0  0  0
   -7.8165   -0.6731    2.1596 H   0  0  0  0  0  0  0  0  0  0  0  0
   -5.7924   -1.2771    3.2091 H   0  0  0  0  0  0  0  0  0  0  0  0
   -3.3955   -1.2783    3.2104 H   0  0  0  0  0  0  0  0  0  0  0  0
    4.7800    0.0383    0.1835 H   0  0  0  0  0  0  0  0  0  0  0  0
    4.7800    0.0383    1.8165 H   0  0  0  0  0  0  0  0  0  0  0  0
    6.6733   -2.7147    1.0000 H   0  0  0  0  0  0  0  0  0  0  0  0
    6.6733   -1.3005    0.1835 H   0  0  0  0  0  0  0  0  0  0  0  0
    6.6733   -1.3005    1.8165 H   0  0  0  0  0  0  0  0  0  0  0  0
  1  2  1  0  0  0  0
  2  3  1  0  0  0  0
  2  4  1  0  0  0  0
  4  5  1  0  0  0  0
  5  6  1  0  0  0  0
  6  7  2  0  0  0  0
  6  8  1  0  0  0  0
  8  9  1  0  0  0  0
  9 10  1  0  0  0  0
 10 11  2  0  0  0  0
 10 12  1  0  0  0  0
  8 13  1  0  0  0  0
 13 14  1  0  0  0  0
 14 15  1  0  0  0  0
 15 16  2  0  0  0  0
 16 17  1  0  0  0  0
 17 18  1  0  0  0  0
 17 19  2  0  0  0  0
 19 20  1  0  0  0  0
 20 14  2  0  0  0  0
  2 21  1  0  0  0  0
 21 22  1  0  0  0  0
 22 23  1  0  0  0  0
  4 24  1  0  0  0  0
  4 25  1  0  0  0  0
  8 26  1  0  0  0  0
  9 27  1  0  0  0  0
 12 28  1  0  0  0  0
 12 29  1  0  0  0  0
 12 30  1  0  0  0  0
 13 31  1  0  0  0  0
 13 32  1  0  0  0  0
 15 33  1  0  0  0  0
 16 34  1  0  0  0  0
 18 35  1  0  0  0  0
 19 36  1  0  0  0  0
 20 37  1  0  0  0  0
 21 38  1  0  0  0  0
 21 39  1  0  0  0  0
 23 40  1  0  0  0  0
 23 41  1  0  0  0  0
 23 42  1  0  0  0  0
M  END
>  <result-rank>
61

>  <similarity>
0.933

>  <query-name>
LIG_A_1101_2_02

>  <query-smiles>
BrC#CCNC(=O)[C@@H](NC(=O)C)Cc1ccc(O)cc1

>  <source>
REALspace_2019-12

>  <similarity-descriptor>
1.000;0.959;0.940;0.940;0.283;0.998;1.000;1.000;1.000;1.000;1.000;1.000;0.214

>  <similarity-descriptor-smiles>
c1ccccc1;FCF;C;C;O;C=O;C;N;C=O;C;C;O;C.O.C

>  <reaction-name>
s_276436a

>  <reagent1-name>
16913726

>  <reagent1-smiles>
[R1*]OCC(F)(F)COC

>  <reagent2-name>
17513464

>  <reagent2-smiles>
[R1*]C(=O)C(NC(=O)C)Cc1ccc(O)cc1

$$$$
s_2430a____11944322____8963102
          04022015103D 1   1.00000     0.00000     0
            
 49 49  0  0  0  0            999 V2000
    0.3891   -4.0175    4.2678 Br  0  0  0  0  0  0  0  0  0  0  0  0
    0.3079   -2.0597    4.2323 C   0  0  0  0  0  0  0  0  0  0  0  0
    0.0403   -1.4039    3.0357 C   0  0  0  0  0  0  0  0  0  0  0  0
   -0.0133   -0.0135    3.0269 C   0  0  0  0  0  0  0  0  0  0  0  0
    0.1960    0.7187    4.1906 C   0  0  0  0  0  0  0  0  0  0  0  0
    0.4629    0.0425    5.3766 C   0  0  0  0  0  0  0  0  0  0  0  0
    0.5208   -1.3468    5.4074 C   0  0  0  0  0  0  0  0  0  0  0  0
   -0.3059    0.7075    1.7208 C   0  0  0  0  0  0  0  0  0  0  0  0
    1.0000    1.0000    1.0000 C   0  0  3  0  0  0  0  0  0  0  0  0
    1.8487    1.8487    1.8487 N   0  0  0  0  0  0  0  0  0  0  0  0
    3.0831    1.4052    2.2442 C   0  0  0  0  0  0  0  0  0  0  0  0
    3.4716    0.3240    1.8978 O   0  0  0  0  0  0  0  0  0  0  0  0
    3.8741    2.1962    3.0352 N   0  0  0  0  0  0  0  0  0  0  0  0
    5.1986    1.7204    3.4595 C   0  0  0  0  0  0  0  0  0  0  0  0
    5.8650    2.7796    4.3223 C   0  0  0  0  0  0  0  0  0  0  0  0
    7.0634    2.3491    4.7062 F   0  0  0  0  0  0  0  0  0  0  0  0
    6.0007    3.9016    3.6211 F   0  0  0  0  0  0  0  0  0  0  0  0
    5.1141    3.0149    5.3945 F   0  0  0  0  0  0  0  0  0  0  0  0
    5.0436    0.4381    4.2608 C   0  0  0  0  0  0  0  0  0  0  0  0
    6.0569    1.4514    2.2342 C   0  0  0  0  0  0  0  0  0  0  0  0
    0.7075    1.7208   -0.3059 C   0  0  0  0  0  0  0  0  0  0  0  0
   -0.1124    0.9010   -1.1257 O   0  0  0  0  0  0  0  0  0  0  0  0
   -0.3856    1.5744   -2.3456 C   0  0  0  0  0  0  0  0  0  0  0  0
   -1.6532    2.3997   -2.1959 C   0  0  0  0  0  0  0  0  0  0  0  0
   -1.9458    3.1205   -3.5017 C   0  0  0  0  0  0  0  0  0  0  0  0
   -0.1113   -1.9233    2.1947 H   0  0  0  0  0  0  0  0  0  0  0  0
    0.1553    1.7177    4.1751 H   0  0  0  0  0  0  0  0  0  0  0  0
    0.6150    0.5618    6.2176 H   0  0  0  0  0  0  0  0  0  0  0  0
    0.7130   -1.8269    6.2633 H   0  0  0  0  0  0  0  0  0  0  0  0
   -0.7801    1.5666    1.9133 H   0  0  0  0  0  0  0  0  0  0  0  0
   -0.8832    0.1301    1.1435 H   0  0  0  0  0  0  0  0  0  0  0  0
    1.4742    0.1409    0.8075 H   0  0  0  0  0  0  0  0  0  0  0  0
    1.5250    2.7498    2.1374 H   0  0  0  0  0  0  0  0  0  0  0  0
    3.5504    3.0973    3.3238 H   0  0  0  0  0  0  0  0  0  0  0  0
    5.9446    0.1144    4.5495 H   0  0  0  0  0  0  0  0  0  0  0  0
    4.4789    0.6150    5.0670 H   0  0  0  0  0  0  0  0  0  0  0  0
    4.6052   -0.2587    3.6932 H   0  0  0  0  0  0  0  0  0  0  0  0
    6.9580    1.1277    2.5228 H   0  0  0  0  0  0  0  0  0  0  0  0
    5.6185    0.7546    1.6665 H   0  0  0  0  0  0  0  0  0  0  0  0
    6.1589    2.2950    1.7070 H   0  0  0  0  0  0  0  0  0  0  0  0
    0.2333    2.5799   -0.1134 H   0  0  0  0  0  0  0  0  0  0  0  0
    1.5666    1.9133   -0.7801 H   0  0  0  0  0  0  0  0  0  0  0  0
   -0.5093    0.9031   -3.0765 H   0  0  0  0  0  0  0  0  0  0  0  0
    0.3796    2.1769   -2.5725 H   0  0  0  0  0  0  0  0  0  0  0  0
   -1.5296    3.0709   -1.4651 H   0  0  0  0  0  0  0  0  0  0  0  0
   -2.4184    1.7972   -1.9691 H   0  0  0  0  0  0  0  0  0  0  0  0
   -2.7797    3.6635   -3.4032 H   0  0  0  0  0  0  0  0  0  0  0  0
   -1.1806    3.7230   -3.7286 H   0  0  0  0  0  0  0  0  0  0  0  0
   -2.0695    2.4492   -4.2326 H   0  0  0  0  0  0  0  0  0  0  0  0
  1  2  1  0  0  0  0
  2  3  1  0  0  0  0
  3  4  2  0  0  0  0
  4  5  1  0  0  0  0
  5  6  2  0  0  0  0
  6  7  1  0  0  0  0
  7  2  2  0  0  0  0
  4  8  1  0  0  0  0
  8  9  1  0  0  0  0
  9 10  1  0  0  0  0
 10 11  1  0  0  0  0
 11 12  2  0  0  0  0
 11 13  1  0  0  0  0
 13 14  1  0  0  0  0
 14 15  1  0  0  0  0
 15 16  1  0  0  0  0
 15 17  1  0  0  0  0
 15 18  1  0  0  0  0
 14 19  1  0  0  0  0
 14 20  1  0  0  0  0
  9 21  1  0  0  0  0
 21 22  1  0  0  0  0
 22 23  1  0  0  0  0
 23 24  1  0  0  0  0
 24 25  1  0  0  0  0
  3 26  1  0  0  0  0
  5 27  1  0  0  0  0
  6 28  1  0  0  0  0
  7 29  1  0  0  0  0
  8 30  1  0  0  0  0
  8 31  1  0  0  0  0
  9 32  1  0  0  0  0
 10 33  1  0  0  0  0
 13 34  1  0  0  0  0
 19 35  1  0  0  0  0
 19 36  1  0  0  0  0
 19 37  1  0  0  0  0
 20 38  1  0  0  0  0
 20 39  1  0  0  0  0
 20 40  1  0  0  0  0
 21 41  1  0  0  0  0
 21 42  1  0  0  0  0
 23 43  1  0  0  0  0
 23 44  1  0  0  0  0
 24 45  1  0  0  0  0
 24 46  1  0  0  0  0
 25 47  1  0  0  0  0
 25 48  1  0  0  0  0
 25 49  1  0  0  0  0
M  END
>  <result-rank>
62

>  <similarity>
0.933

>  <query-name>
LIG_A_1101_2_02

>  <query-smiles>
BrC#CCNC(=O)[C@@H](NC(=O)C)Cc1ccc(O)cc1

>  <source>
REALspace_2019-12

>  <similarity-descriptor>
0.962;0.990;0.988;0.988;1.000;0.995;0.999;0.999;0.770;0.957;1.000;0.0;0.200

>  <similarity-descriptor-smiles>
Brc1ccccc1;C(F)(F)F;CC;CC;N;C=O;CN;CN;CO;C;C;;C.C.C

>  <reaction-name>
s_2430a

>  <reagent1-name>
11944322

>  <reagent1-smiles>
[R1*]C(=O)NC(C(F)(F)F)(C)C

>  <reagent2-name>
8963102

>  <reagent2-smiles>
[R1*]NC(COCCC)Cc1cc(Br)ccc1

$$$$
s_22____12206138____8850186
          04022015103D 1   1.00000     0.00000     0
            
 39 39  0  0  0  0            999 V2000
   -3.6807    2.6142   -0.0859 F   0  0  0  0  0  0  0  0  0  0  0  0
   -3.3594    3.3117    1.0000 C   0  0  0  0  0  0  0  0  0  0  0  0
   -3.6807    2.6142    2.0859 F   0  0  0  0  0  0  0  0  0  0  0  0
   -4.0244    4.4635    1.0000 F   0  0  0  0  0  0  0  0  0  0  0  0
   -1.8650    3.5894    1.0000 C   0  0  0  0  0  0  0  0  0  0  0  0
   -1.1300    2.3164    1.0000 N   0  0  0  0  0  0  0  0  0  0  0  0
    0.2400    2.3164    1.0000 C   0  0  0  0  0  0  0  0  0  0  0  0
    0.8400    3.3556    1.0000 O   0  0  0  0  0  0  0  0  0  0  0  0
    1.0000    1.0000    1.0000 C   0  0  0  0  0  0  0  0  0  0  0  0
    0.4000   -0.0392    1.0000 O   0  0  0  0  0  0  0  0  0  0  0  0
    2.3700    1.0000    1.0000 N   0  0  0  0  0  0  0  0  0  0  0  0
    3.1050   -0.2731    1.0000 C   0  0  3  0  0  0  0  0  0  0  0  0
    3.9789   -0.3536    2.2411 C   0  0  0  0  0  0  0  0  0  0  0  0
    4.0832   -1.3910    2.8352 O   0  0  0  0  0  0  0  0  0  0  0  0
    4.6181    0.7095    2.6621 O   0  0  0  0  0  0  0  0  0  0  0  0
    5.4345    0.6343    3.8216 C   0  0  0  0  0  0  0  0  0  0  0  0
    3.9789   -0.3536   -0.2411 C   0  0  0  0  0  0  0  0  0  0  0  0
    4.7391   -1.6703   -0.2411 C   0  0  0  0  0  0  0  0  0  0  0  0
    4.1830   -2.7945   -0.8436 C   0  0  0  0  0  0  0  0  0  0  0  0
    2.9692   -2.7337   -1.4322 O   0  0  0  0  0  0  0  0  0  0  0  0
    4.8786   -3.9995   -0.8435 C   0  0  0  0  0  0  0  0  0  0  0  0
    6.1304   -4.0800   -0.2412 C   0  0  0  0  0  0  0  0  0  0  0  0
    6.6863   -2.9555    0.3606 C   0  0  0  0  0  0  0  0  0  0  0  0
    5.9908   -1.7507    0.3600 C   0  0  0  0  0  0  0  0  0  0  0  0
   -1.6234    4.1138    0.1835 H   0  0  0  0  0  0  0  0  0  0  0  0
   -1.6234    4.1138    1.8165 H   0  0  0  0  0  0  0  0  0  0  0  0
   -1.6300    1.4503    1.0000 H   0  0  0  0  0  0  0  0  0  0  0  0
    2.8700    1.8660    1.0000 H   0  0  0  0  0  0  0  0  0  0  0  0
    2.4552   -1.0331    1.0000 H   0  0  0  0  0  0  0  0  0  0  0  0
    5.8444    1.5289    3.9992 H   0  0  0  0  0  0  0  0  0  0  0  0
    4.8762    0.3619    4.6052 H   0  0  0  0  0  0  0  0  0  0  0  0
    6.1578   -0.0409    3.6767 H   0  0  0  0  0  0  0  0  0  0  0  0
    3.4040   -0.3006   -1.0576 H   0  0  0  0  0  0  0  0  0  0  0  0
    4.6287    0.4065   -0.2411 H   0  0  0  0  0  0  0  0  0  0  0  0
    2.5805   -3.5488   -1.8619 H   0  0  0  0  0  0  0  0  0  0  0  0
    4.4789   -4.8077   -1.2761 H   0  0  0  0  0  0  0  0  0  0  0  0
    6.6304   -4.9460   -0.2409 H   0  0  0  0  0  0  0  0  0  0  0  0
    7.5859   -3.0132    0.7935 H   0  0  0  0  0  0  0  0  0  0  0  0
    6.3908   -0.9423    0.7919 H   0  0  0  0  0  0  0  0  0  0  0  0
  1  2  1  0  0  0  0
  2  3  1  0  0  0  0
  2  4  1  0  0  0  0
  2  5  1  0  0  0  0
  5  6  1  0  0  0  0
  6  7  1  0  0  0  0
  7  8  2  0  0  0  0
  7  9  1  0  0  0  0
  9 10  2  0  0  0  0
  9 11  1  0  0  0  0
 11 12  1  0  0  0  0
 12 13  1  0  0  0  0
 13 14  2  0  0  0  0
 13 15  1  0  0  0  0
 15 16  1  0  0  0  0
 12 17  1  0  0  0  0
 17 18  1  0  0  0  0
 18 19  1  0  0  0  0
 19 20  1  0  0  0  0
 19 21  2  0  0  0  0
 21 22  1  0  0  0  0
 22 23  2  0  0  0  0
 23 24  1  0  0  0  0
 24 18  2  0  0  0  0
  5 25  1  0  0  0  0
  5 26  1  0  0  0  0
  6 27  1  0  0  0  0
 11 28  1  0  0  0  0
 12 29  1  0  0  0  0
 16 30  1  0  0  0  0
 16 31  1  0  0  0  0
 16 32  1  0  0  0  0
 17 33  1  0  0  0  0
 17 34  1  0  0  0  0
 20 35  1  0  0  0  0
 21 36  1  0  0  0  0
 22 37  1  0  0  0  0
 23 38  1  0  0  0  0
 24 39  1  0  0  0  0
M  END
>  <result-rank>
63

>  <similarity>
0.933

>  <query-name>
LIG_A_1101_2_02

>  <query-smiles>
BrC#CCNC(=O)[C@@H](NC(=O)C)Cc1ccc(O)cc1

>  <source>
REALspace_2019-12

>  <similarity-descriptor>
1.000;0.968;0.968;0.999;1.000;0.667;1.000;1.000;0.855;0.994;1.000;1.000;0.0

>  <similarity-descriptor-smiles>
c1ccccc1;FC(F)F;FC(F)F;C;N;C(=O)C=O;NC;NC;C(=O)O;C;C;O;

>  <reaction-name>
s_22

>  <reagent1-name>
12206138

>  <reagent1-smiles>
[R1*]NC(C(=O)OC)Cc1c(O)cccc1

>  <reagent2-name>
8850186

>  <reagent2-smiles>
[R1*]C(=O)C(=O)NCC(F)(F)F

$$$$
s_2430a____11944322____11756930
          04022015103D 1   1.00000     0.00000     0
            
 34 34  0  0  0  0            999 V2000
    4.9207    0.7021   -0.0859 F   0  0  0  0  0  0  0  0  0  0  0  0
    4.5994    0.0047    1.0000 C   0  0  0  0  0  0  0  0  0  0  0  0
    4.9207    0.7021    2.0859 F   0  0  0  0  0  0  0  0  0  0  0  0
    5.2644   -1.1471    1.0000 F   0  0  0  0  0  0  0  0  0  0  0  0
    3.1050   -0.2731    1.0000 C   0  0  0  0  0  0  0  0  0  0  0  0
    2.3700    1.0000    1.0000 N   0  0  0  0  0  0  0  0  0  0  0  0
    1.0000    1.0000    1.0000 C   0  0  0  0  0  0  0  0  0  0  0  0
    0.4000   -0.0392    1.0000 O   0  0  0  0  0  0  0  0  0  0  0  0
    0.3150    2.1865    1.0000 N   0  0  0  0  0  0  0  0  0  0  0  0
   -1.0844    2.1865    1.0000 C   0  0  0  0  0  0  0  0  0  0  0  0
   -1.7603    2.1865   -0.2158 C   0  0  0  0  0  0  0  0  0  0  0  0
   -3.1511    2.1857   -0.2097 C   0  0  0  0  0  0  0  0  0  0  0  0
   -3.8257    2.1844   -1.3801 O   0  0  0  0  0  0  0  0  0  0  0  0
   -3.8577    2.1828    0.9875 C   0  0  0  0  0  0  0  0  0  0  0  0
   -3.1700    2.1818    2.1959 C   0  0  0  0  0  0  0  0  0  0  0  0
   -1.7797    2.1854    2.2048 C   0  0  0  0  0  0  0  0  0  0  0  0
    1.0500    3.4595    1.0000 C   0  0  0  0  0  0  0  0  0  0  0  0
    2.7378   -1.0701    2.2411 C   0  0  0  0  0  0  0  0  0  0  0  0
    2.7378   -1.0701   -0.2411 C   0  0  0  0  0  0  0  0  0  0  0  0
    2.8700    1.8660    1.0000 H   0  0  0  0  0  0  0  0  0  0  0  0
   -1.2552    2.1870   -1.0789 H   0  0  0  0  0  0  0  0  0  0  0  0
   -4.8257    2.1838   -1.3808 H   0  0  0  0  0  0  0  0  0  0  0  0
   -4.8577    2.1814    0.9796 H   0  0  0  0  0  0  0  0  0  0  0  0
   -3.6754    2.1785    3.0588 H   0  0  0  0  0  0  0  0  0  0  0  0
   -1.2824    2.1872    3.0723 H   0  0  0  0  0  0  0  0  0  0  0  0
    2.0332    3.2768    1.0000 H   0  0  0  0  0  0  0  0  0  0  0  0
    0.8084    3.9839    0.1835 H   0  0  0  0  0  0  0  0  0  0  0  0
    0.8084    3.9839    1.8165 H   0  0  0  0  0  0  0  0  0  0  0  0
    3.2378   -1.9361    2.2411 H   0  0  0  0  0  0  0  0  0  0  0  0
    2.9794   -0.5457    3.0576 H   0  0  0  0  0  0  0  0  0  0  0  0
    1.7546   -1.2528    2.2411 H   0  0  0  0  0  0  0  0  0  0  0  0
    3.2378   -1.9361   -0.2411 H   0  0  0  0  0  0  0  0  0  0  0  0
    1.7546   -1.2528   -0.2411 H   0  0  0  0  0  0  0  0  0  0  0  0
    2.9794   -0.5457   -1.0576 H   0  0  0  0  0  0  0  0  0  0  0  0
  1  2  1  0  0  0  0
  2  3  1  0  0  0  0
  2  4  1  0  0  0  0
  2  5  1  0  0  0  0
  5  6  1  0  0  0  0
  6  7  1  0  0  0  0
  7  8  2  0  0  0  0
  7  9  1  0  0  0  0
  9 10  1  0  0  0  0
 10 11  1  0  0  0  0
 11 12  2  0  0  0  0
 12 13  1  0  0  0  0
 12 14  1  0  0  0  0
 14 15  2  0  0  0  0
 15 16  1  0  0  0  0
 16 10  2  0  0  0  0
  9 17  1  0  0  0  0
  5 18  1  0  0  0  0
  5 19  1  0  0  0  0
  6 20  1  0  0  0  0
 11 21  1  0  0  0  0
 13 22  1  0  0  0  0
 14 23  1  0  0  0  0
 15 24  1  0  0  0  0
 16 25  1  0  0  0  0
 17 26  1  0  0  0  0
 17 27  1  0  0  0  0
 17 28  1  0  0  0  0
 18 29  1  0  0  0  0
 18 30  1  0  0  0  0
 18 31  1  0  0  0  0
 19 32  1  0  0  0  0
 19 33  1  0  0  0  0
 19 34  1  0  0  0  0
M  END
>  <result-rank>
64

>  <similarity>
0.933

>  <query-name>
LIG_A_1101_2_02

>  <query-smiles>
BrC#CCNC(=O)[C@@H](NC(=O)C)Cc1ccc(O)cc1

>  <source>
REALspace_2019-12

>  <similarity-descriptor>
0.998;0.990;0.988;0.988;1.000;0.891;0.891;0.0;0.0;0.0;0.927;1.000;0.100

>  <similarity-descriptor-smiles>
c1ccccc1;FC(F)F;CC;CC;N;C=O;C=O;;;;NC;O;C

>  <reaction-name>
s_2430a

>  <reagent1-name>
11944322

>  <reagent1-smiles>
[R1*]C(=O)NC(C(F)(F)F)(C)C

>  <reagent2-name>
11756930

>  <reagent2-smiles>
[R1*]N(c1cc(O)ccc1)C

$$$$
s_22____10954494____12624298
          04022015103D 1   1.00000     0.00000     0
            
 38 38  0  0  0  0            999 V2000
   -4.9718    1.6148    2.2810 Br  0  0  0  0  0  0  0  0  0  0  0  0
   -3.5064    1.7632    0.9881 C   0  0  0  0  0  0  0  0  0  0  0  0
   -2.2091    1.9780    1.4403 C   0  0  0  0  0  0  0  0  0  0  0  0
   -1.1798    2.0818    0.5098 C   0  0  0  0  0  0  0  0  0  0  0  0
   -1.4333    1.9740   -0.8534 C   0  0  0  0  0  0  0  0  0  0  0  0
   -2.7384    1.7598   -1.2841 C   0  0  0  0  0  0  0  0  0  0  0  0
   -3.7819    1.6529   -0.3707 C   0  0  0  0  0  0  0  0  0  0  0  0
    0.2400    2.3164    1.0000 C   0  0  3  0  0  0  0  0  0  0  0  0
    0.9144    3.2716    0.1091 N   0  0  0  0  0  0  0  0  0  0  0  0
    1.3899    4.4555    0.6082 C   0  0  0  0  0  0  0  0  0  0  0  0
    1.2557    4.7128    1.7726 O   0  0  0  0  0  0  0  0  0  0  0  0
    2.0873    5.4432   -0.3129 C   0  0  0  0  0  0  0  0  0  0  0  0
    1.0000    1.0000    1.0000 C   0  0  0  0  0  0  0  0  0  0  0  0
    0.4000   -0.0392    1.0000 O   0  0  0  0  0  0  0  0  0  0  0  0
    2.3700    1.0000    1.0000 N   0  0  0  0  0  0  0  0  0  0  0  0
    3.0615   -0.1977    1.0000 N   0  0  0  0  0  0  0  0  0  0  0  0
    3.4040   -0.7909   -0.1865 C   0  0  0  0  0  0  0  0  0  0  0  0
    2.9915   -0.0765   -1.6154 S   0  0  0  0  0  0  0  0  0  0  0  0
    4.0890   -1.9774   -0.1865 N   0  0  0  0  0  0  0  0  0  0  0  0
    4.4565   -2.6139   -1.4595 C   0  0  0  0  0  0  0  0  0  0  0  0
    3.4290   -0.8342    2.2731 C   0  0  0  0  0  0  0  0  0  0  0  0
   -2.0189    2.0566    2.4189 H   0  0  0  0  0  0  0  0  0  0  0  0
   -0.6872    2.0495   -1.5151 H   0  0  0  0  0  0  0  0  0  0  0  0
   -2.9289    1.6816   -2.2627 H   0  0  0  0  0  0  0  0  0  0  0  0
   -4.7180    1.4988   -0.6868 H   0  0  0  0  0  0  0  0  0  0  0  0
    0.2151    2.6869    1.9285 H   0  0  0  0  0  0  0  0  0  0  0  0
    1.0262    3.0571   -0.8612 H   0  0  0  0  0  0  0  0  0  0  0  0
    2.1121    5.0727   -1.2414 H   0  0  0  0  0  0  0  0  0  0  0  0
    1.5873    6.3092   -0.3129 H   0  0  0  0  0  0  0  0  0  0  0  0
    3.0212    5.5975    0.0095 H   0  0  0  0  0  0  0  0  0  0  0  0
    2.8700    1.8660    1.0000 H   0  0  0  0  0  0  0  0  0  0  0  0
    4.3390   -2.4104    0.6796 H   0  0  0  0  0  0  0  0  0  0  0  0
    4.9481   -3.4654   -1.2768 H   0  0  0  0  0  0  0  0  0  0  0  0
    3.6286   -2.8130   -1.9839 H   0  0  0  0  0  0  0  0  0  0  0  0
    5.0428   -1.9965   -1.9839 H   0  0  0  0  0  0  0  0  0  0  0  0
    3.9206   -1.6857    2.0903 H   0  0  0  0  0  0  0  0  0  0  0  0
    4.0153   -0.2168    2.7974 H   0  0  0  0  0  0  0  0  0  0  0  0
    2.6011   -1.0333    2.7974 H   0  0  0  0  0  0  0  0  0  0  0  0
  1  2  1  0  0  0  0
  2  3  1  0  0  0  0
  3  4  2  0  0  0  0
  4  5  1  0  0  0  0
  5  6  2  0  0  0  0
  6  7  1  0  0  0  0
  7  2  2  0  0  0  0
  4  8  1  0  0  0  0
  8  9  1  0  0  0  0
  9 10  1  0  0  0  0
 10 11  2  0  0  0  0
 10 12  1  0  0  0  0
  8 13  1  0  0  0  0
 13 14  2  0  0  0  0
 13 15  1  0  0  0  0
 15 16  1  0  0  0  0
 16 17  1  0  0  0  0
 17 18  2  0  0  0  0
 17 19  1  0  0  0  0
 19 20  1  0  0  0  0
 16 21  1  0  0  0  0
  3 22  1  0  0  0  0
  5 23  1  0  0  0  0
  6 24  1  0  0  0  0
  7 25  1  0  0  0  0
  8 26  1  0  0  0  0
  9 27  1  0  0  0  0
 12 28  1  0  0  0  0
 12 29  1  0  0  0  0
 12 30  1  0  0  0  0
 15 31  1  0  0  0  0
 19 32  1  0  0  0  0
 20 33  1  0  0  0  0
 20 34  1  0  0  0  0
 20 35  1  0  0  0  0
 21 36  1  0  0  0  0
 21 37  1  0  0  0  0
 21 38  1  0  0  0  0
M  END
>  <result-rank>
65

>  <similarity>
0.932

>  <query-name>
LIG_A_1101_2_02

>  <query-smiles>
BrC#CCNC(=O)[C@@H](NC(=O)C)Cc1ccc(O)cc1

>  <source>
REALspace_2019-12

>  <similarity-descriptor>
0.969;0.906;0.906;0.906;0.984;1.000;1.000;1.000;1.000;1.000;0.969;0.0;0.250

>  <similarity-descriptor-smiles>
Brc1ccccc1;NC;NC;NC;N;C=O;C;N;C=O;C;Brc1ccccc1;;C=S.N.C

>  <reaction-name>
s_22

>  <reagent1-name>
10954494

>  <reagent1-smiles>
[R1*]NN(C(=S)NC)C

>  <reagent2-name>
12624298

>  <reagent2-smiles>
[R1*]C(=O)C(NC(=O)C)c1cc(Br)ccc1

$$$$
s_270062____16436390____15585492
          04022015103D 1   1.00000     0.00000     0
            
 35 35  0  0  0  0            999 V2000
    5.1263   -1.3628    5.1136 F   0  0  0  0  0  0  0  0  0  0  0  0
    4.3588   -0.5956    4.3441 C   0  0  0  0  0  0  0  0  0  0  0  0
    4.8138   -0.1972    3.0913 C   0  0  0  0  0  0  0  0  0  0  0  0
    4.0061    0.6058    2.2926 C   0  0  0  0  0  0  0  0  0  0  0  0
    2.7550    1.0001    2.7550 C   0  0  0  0  0  0  0  0  0  0  0  0
    2.3051    0.5984    4.0081 C   0  0  0  0  0  0  0  0  0  0  0  0
    3.1081   -0.2048    4.8109 C   0  0  0  0  0  0  0  0  0  0  0  0
    1.8776    1.8776    1.8776 C   0  0  0  0  0  0  0  0  0  0  0  0
    1.0000    1.0000    1.0000 C   0  0  3  0  0  0  0  0  0  0  0  0
    1.8487    0.1513    0.1513 N   0  0  0  0  0  0  0  0  0  0  0  0
    1.7598   -1.2129    0.2402 C   0  0  0  0  0  0  0  0  0  0  0  0
    0.9891   -1.7150    1.0109 O   0  0  0  0  0  0  0  0  0  0  0  0
    2.6374   -2.0905   -0.6374 C   0  0  0  0  0  0  0  0  0  0  0  0
    0.1224    1.8776    0.1224 C   0  0  0  0  0  0  0  0  0  0  0  0
    0.9423    2.6974   -0.6974 O   0  0  0  0  0  0  0  0  0  0  0  0
   -0.7551    1.0000   -0.7551 C   0  0  0  0  0  0  0  0  0  0  0  0
   -0.7551    2.7551    1.0000 C   0  0  0  0  0  0  0  0  0  0  0  0
    5.7148   -0.4859    2.7673 H   0  0  0  0  0  0  0  0  0  0  0  0
    4.3233    0.8981    1.3904 H   0  0  0  0  0  0  0  0  0  0  0  0
    1.4040    0.8870    4.3319 H   0  0  0  0  0  0  0  0  0  0  0  0
    2.7903   -0.4977    5.7127 H   0  0  0  0  0  0  0  0  0  0  0  0
    2.4549    2.4549    1.3002 H   0  0  0  0  0  0  0  0  0  0  0  0
    1.3002    2.4549    2.4549 H   0  0  0  0  0  0  0  0  0  0  0  0
    0.4226    0.4226    1.5774 H   0  0  0  0  0  0  0  0  0  0  0  0
    2.4909    0.5697   -0.4909 H   0  0  0  0  0  0  0  0  0  0  0  0
    3.2147   -1.5131   -1.2147 H   0  0  0  0  0  0  0  0  0  0  0  0
    3.2147   -2.6678   -0.0600 H   0  0  0  0  0  0  0  0  0  0  0  0
    2.0600   -2.6678   -1.2147 H   0  0  0  0  0  0  0  0  0  0  0  0
    0.3649    3.2748   -1.2748 H   0  0  0  0  0  0  0  0  0  0  0  0
   -1.3325    0.4226   -0.1778 H   0  0  0  0  0  0  0  0  0  0  0  0
   -1.3325    1.5774   -1.3325 H   0  0  0  0  0  0  0  0  0  0  0  0
   -0.1778    0.4226   -1.3325 H   0  0  0  0  0  0  0  0  0  0  0  0
   -1.3325    2.1778    1.5774 H   0  0  0  0  0  0  0  0  0  0  0  0
   -0.1778    3.3325    1.5774 H   0  0  0  0  0  0  0  0  0  0  0  0
   -1.3325    3.3325    0.4226 H   0  0  0  0  0  0  0  0  0  0  0  0
  1  2  1  0  0  0  0
  2  3  1  0  0  0  0
  3  4  2  0  0  0  0
  4  5  1  0  0  0  0
  5  6  2  0  0  0  0
  6  7  1  0  0  0  0
  7  2  2  0  0  0  0
  5  8  1  0  0  0  0
  8  9  1  0  0  0  0
  9 10  1  0  0  0  0
 10 11  1  0  0  0  0
 11 12  2  0  0  0  0
 11 13  1  0  0  0  0
  9 14  1  0  0  0  0
 14 15  1  0  0  0  0
 14 16  1  0  0  0  0
 14 17  1  0  0  0  0
  3 18  1  0  0  0  0
  4 19  1  0  0  0  0
  6 20  1  0  0  0  0
  7 21  1  0  0  0  0
  8 22  1  0  0  0  0
  8 23  1  0  0  0  0
  9 24  1  0  0  0  0
 10 25  1  0  0  0  0
 13 26  1  0  0  0  0
 13 27  1  0  0  0  0
 13 28  1  0  0  0  0
 15 29  1  0  0  0  0
 16 30  1  0  0  0  0
 16 31  1  0  0  0  0
 16 32  1  0  0  0  0
 17 33  1  0  0  0  0
 17 34  1  0  0  0  0
 17 35  1  0  0  0  0
M  END
>  <result-rank>
66

>  <similarity>
0.932

>  <query-name>
LIG_A_1101_2_02

>  <query-smiles>
BrC#CCNC(=O)[C@@H](NC(=O)C)Cc1ccc(O)cc1

>  <source>
REALspace_2019-12

>  <similarity-descriptor>
0.983;0.0;0.983;0.983;0.830;0.830;1.000;1.000;1.000;1.000;1.000;0.0;0.100

>  <similarity-descriptor-smiles>
Fc1ccccc1;;C;C;CO;CO;CC;N;C=O;C;CC;;C

>  <reaction-name>
s_270062

>  <reagent1-name>
16436390

>  <reagent1-smiles>
[R1*]NC(C(O)(C)C)Cc1ccc(F)cc1

>  <reagent2-name>
15585492

>  <reagent2-smiles>
[R1*]C(=O)C

$$$$
s_22____12635594____12525624
          04022015103D 1   1.00000     0.00000     0
            
 35 35  0  0  0  0            999 V2000
   -2.4610    2.4562    5.6726 Br  0  0  0  0  0  0  0  0  0  0  0  0
   -2.3455    2.1467    3.7406 C   0  0  0  0  0  0  0  0  0  0  0  0
   -1.1288    2.3142    3.0886 C   0  0  0  0  0  0  0  0  0  0  0  0
   -1.0634    2.0913    1.7167 C   0  0  0  0  0  0  0  0  0  0  0  0
   -2.1909    1.7068    0.9991 C   0  0  0  0  0  0  0  0  0  0  0  0
   -3.3982    1.5455    1.6710 C   0  0  0  0  0  0  0  0  0  0  0  0
   -3.4853    1.7632    3.0420 C   0  0  0  0  0  0  0  0  0  0  0  0
    0.2650    2.2731    1.0000 C   0  0  3  0  0  0  0  0  0  0  0  0
    1.0000    1.0000    1.0000 N   0  0  0  0  0  0  0  0  0  0  0  0
    2.3700    1.0000    1.0000 C   0  0  0  0  0  0  0  0  0  0  0  0
    2.9700    2.0392    1.0000 O   0  0  0  0  0  0  0  0  0  0  0  0
    3.1300   -0.3164    1.0000 C   0  0  0  0  0  0  0  0  0  0  0  0
    3.3833   -0.7551   -0.4331 C   0  0  0  0  0  0  0  0  0  0  0  0
    2.2212   -0.9142   -1.0600 F   0  0  0  0  0  0  0  0  0  0  0  0
    4.1021    0.1718   -1.0600 F   0  0  0  0  0  0  0  0  0  0  0  0
    4.1433   -2.0715   -0.4331 C   0  0  0  0  0  0  0  0  0  0  0  0
    4.3650   -2.4554   -1.6870 F   0  0  0  0  0  0  0  0  0  0  0  0
    5.3055   -1.9125    0.1939 F   0  0  0  0  0  0  0  0  0  0  0  0
    3.4245   -2.9984    0.1939 F   0  0  0  0  0  0  0  0  0  0  0  0
    0.0117    2.7118   -0.4331 C   0  0  0  0  0  0  0  0  0  0  0  0
   -0.6983    3.9416   -0.4331 O   0  0  0  0  0  0  0  0  0  0  0  0
   -0.9350    4.3515   -1.7719 C   0  0  0  0  0  0  0  0  0  0  0  0
   -0.3136    2.5905    3.5976 H   0  0  0  0  0  0  0  0  0  0  0  0
   -2.1345    1.5484    0.0133 H   0  0  0  0  0  0  0  0  0  0  0  0
   -4.2135    1.2697    1.1620 H   0  0  0  0  0  0  0  0  0  0  0  0
   -4.3562    1.6455    3.5191 H   0  0  0  0  0  0  0  0  0  0  0  0
    0.8054    2.9700    1.4714 H   0  0  0  0  0  0  0  0  0  0  0  0
    0.5000    0.1340    1.0000 H   0  0  0  0  0  0  0  0  0  0  0  0
    2.5896   -1.0133    1.4714 H   0  0  0  0  0  0  0  0  0  0  0  0
    4.0038   -0.1968    1.4714 H   0  0  0  0  0  0  0  0  0  0  0  0
    0.8854    2.8314   -0.9045 H   0  0  0  0  0  0  0  0  0  0  0  0
   -0.5288    2.0149   -0.9045 H   0  0  0  0  0  0  0  0  0  0  0  0
   -1.4350    5.2175   -1.7719 H   0  0  0  0  0  0  0  0  0  0  0  0
   -0.0612    4.4711   -2.2433 H   0  0  0  0  0  0  0  0  0  0  0  0
   -1.4754    3.6546   -2.2433 H   0  0  0  0  0  0  0  0  0  0  0  0
  1  2  1  0  0  0  0
  2  3  1  0  0  0  0
  3  4  2  0  0  0  0
  4  5  1  0  0  0  0
  5  6  2  0  0  0  0
  6  7  1  0  0  0  0
  7  2  2  0  0  0  0
  4  8  1  0  0  0  0
  8  9  1  0  0  0  0
  9 10  1  0  0  0  0
 10 11  2  0  0  0  0
 10 12  1  0  0  0  0
 12 13  1  0  0  0  0
 13 14  1  0  0  0  0
 13 15  1  0  0  0  0
 13 16  1  0  0  0  0
 16 17  1  0  0  0  0
 16 18  1  0  0  0  0
 16 19  1  0  0  0  0
  8 20  1  0  0  0  0
 20 21  1  0  0  0  0
 21 22  1  0  0  0  0
  3 23  1  0  0  0  0
  5 24  1  0  0  0  0
  6 25  1  0  0  0  0
  7 26  1  0  0  0  0
  8 27  1  0  0  0  0
  9 28  1  0  0  0  0
 12 29  1  0  0  0  0
 12 30  1  0  0  0  0
 20 31  1  0  0  0  0
 20 32  1  0  0  0  0
 22 33  1  0  0  0  0
 22 34  1  0  0  0  0
 22 35  1  0  0  0  0
M  END
>  <result-rank>
67

>  <similarity>
0.932

>  <query-name>
LIG_A_1101_2_02

>  <query-smiles>
BrC#CCNC(=O)[C@@H](NC(=O)C)Cc1ccc(O)cc1

>  <source>
REALspace_2019-12

>  <similarity-descriptor>
0.969;0.990;0.945;0.945;0.852;0.852;1.000;1.000;0.770;0.994;0.969;0.0;0.0

>  <similarity-descriptor-smiles>
Brc1ccccc1;C(F)(F)F;CC(F)F;CC(F)F;C=O;C=O;CN;CN;CO;C;Brc1ccccc1;;

>  <reaction-name>
s_22

>  <reagent1-name>
12635594

>  <reagent1-smiles>
[R1*]NC(c1cc(Br)ccc1)COC

>  <reagent2-name>
12525624

>  <reagent2-smiles>
[R1*]C(=O)CC(F)(F)C(F)(F)F

$$$$
s_22____12206138____13027156
          04022015103D 1   1.00000     0.00000     0
            
 38 38  0  0  0  0            999 V2000
    4.9457    0.6588   -0.0859 F   0  0  0  0  0  0  0  0  0  0  0  0
    4.6244   -0.0386    1.0000 C   0  0  0  0  0  0  0  0  0  0  0  0
    4.9457    0.6588    2.0859 F   0  0  0  0  0  0  0  0  0  0  0  0
    5.3844   -1.3550    1.0000 C   0  0  0  0  0  0  0  0  0  0  0  0
    6.6920   -1.1119    1.0000 F   0  0  0  0  0  0  0  0  0  0  0  0
    5.0631   -2.0524    2.0859 F   0  0  0  0  0  0  0  0  0  0  0  0
    3.1300   -0.3164    1.0000 C   0  0  0  0  0  0  0  0  0  0  0  0
    2.3700    1.0000    1.0000 C   0  0  0  0  0  0  0  0  0  0  0  0
    2.9700    2.0392    1.0000 O   0  0  0  0  0  0  0  0  0  0  0  0
    1.0000    1.0000    1.0000 N   0  0  0  0  0  0  0  0  0  0  0  0
    0.2650    2.2731    1.0000 C   0  0  3  0  0  0  0  0  0  0  0  0
   -0.6089    2.3536    2.2411 C   0  0  0  0  0  0  0  0  0  0  0  0
   -1.7152    2.8125    2.1672 O   0  0  0  0  0  0  0  0  0  0  0  0
   -0.1543    1.9220    3.3914 O   0  0  0  0  0  0  0  0  0  0  0  0
   -0.9706    1.9972    4.5508 C   0  0  0  0  0  0  0  0  0  0  0  0
   -0.6089    2.3536   -0.2411 C   0  0  0  0  0  0  0  0  0  0  0  0
    0.2653    2.2730   -1.4825 C   0  0  0  0  0  0  0  0  0  0  0  0
    0.7757    3.4362   -2.0504 C   0  0  0  0  0  0  0  0  0  0  0  0
    0.5041    4.6446   -1.5123 O   0  0  0  0  0  0  0  0  0  0  0  0
    1.5754    3.3626   -3.1866 C   0  0  0  0  0  0  0  0  0  0  0  0
    1.8651    2.1256   -3.7543 C   0  0  0  0  0  0  0  0  0  0  0  0
    1.3550    0.9627   -3.1857 C   0  0  0  0  0  0  0  0  0  0  0  0
    0.5557    1.0366   -2.0496 C   0  0  0  0  0  0  0  0  0  0  0  0
    5.1428   -1.8793    0.1835 H   0  0  0  0  0  0  0  0  0  0  0  0
    2.8884   -0.8407    0.1835 H   0  0  0  0  0  0  0  0  0  0  0  0
    2.8884   -0.8407    1.8165 H   0  0  0  0  0  0  0  0  0  0  0  0
    0.5000    0.1340    1.0000 H   0  0  0  0  0  0  0  0  0  0  0  0
    0.9148    3.0331    1.0000 H   0  0  0  0  0  0  0  0  0  0  0  0
   -0.4715    1.6274    5.3345 H   0  0  0  0  0  0  0  0  0  0  0  0
   -1.2102    2.9517    4.7284 H   0  0  0  0  0  0  0  0  0  0  0  0
   -1.8051    1.4655    4.4060 H   0  0  0  0  0  0  0  0  0  0  0  0
   -1.2587    1.5935   -0.2411 H   0  0  0  0  0  0  0  0  0  0  0  0
   -1.1089    3.2196   -0.2411 H   0  0  0  0  0  0  0  0  0  0  0  0
    0.8770    5.4731   -1.9299 H   0  0  0  0  0  0  0  0  0  0  0  0
    1.9420    4.1985   -3.5951 H   0  0  0  0  0  0  0  0  0  0  0  0
    2.4398    2.0725   -4.5709 H   0  0  0  0  0  0  0  0  0  0  0  0
    1.5630    0.0738   -3.5937 H   0  0  0  0  0  0  0  0  0  0  0  0
    0.1898    0.2007   -1.6406 H   0  0  0  0  0  0  0  0  0  0  0  0
  1  2  1  0  0  0  0
  2  3  1  0  0  0  0
  2  4  1  0  0  0  0
  4  5  1  0  0  0  0
  4  6  1  0  0  0  0
  2  7  1  0  0  0  0
  7  8  1  0  0  0  0
  8  9  2  0  0  0  0
  8 10  1  0  0  0  0
 10 11  1  0  0  0  0
 11 12  1  0  0  0  0
 12 13  2  0  0  0  0
 12 14  1  0  0  0  0
 14 15  1  0  0  0  0
 11 16  1  0  0  0  0
 16 17  1  0  0  0  0
 17 18  1  0  0  0  0
 18 19  1  0  0  0  0
 18 20  2  0  0  0  0
 20 21  1  0  0  0  0
 21 22  2  0  0  0  0
 22 23  1  0  0  0  0
 23 17  2  0  0  0  0
  4 24  1  0  0  0  0
  7 25  1  0  0  0  0
  7 26  1  0  0  0  0
 10 27  1  0  0  0  0
 11 28  1  0  0  0  0
 15 29  1  0  0  0  0
 15 30  1  0  0  0  0
 15 31  1  0  0  0  0
 16 32  1  0  0  0  0
 16 33  1  0  0  0  0
 19 34  1  0  0  0  0
 20 35  1  0  0  0  0
 21 36  1  0  0  0  0
 22 37  1  0  0  0  0
 23 38  1  0  0  0  0
M  END
>  <result-rank>
68

>  <similarity>
0.932

>  <query-name>
LIG_A_1101_2_02

>  <query-smiles>
BrC#CCNC(=O)[C@@H](NC(=O)C)Cc1ccc(O)cc1

>  <source>
REALspace_2019-12

>  <similarity-descriptor>
1.000;0.959;0.933;0.933;0.852;0.852;1.000;1.000;0.855;0.994;1.000;1.000;0.083

>  <similarity-descriptor-smiles>
c1ccccc1;FCF;C;C;C=O;C=O;NC;NC;C(=O)O;C;C;O;C(F)F

>  <reaction-name>
s_22

>  <reagent1-name>
12206138

>  <reagent1-smiles>
[R1*]NC(C(=O)OC)Cc1c(O)cccc1

>  <reagent2-name>
13027156

>  <reagent2-smiles>
[R1*]C(=O)CC(F)(F)C(F)F

$$$$
s_2430a____10229206____9298134
          04022015103D 1   1.00000     0.00000     0
            
 44 45  0  0  0  0            999 V2000
    6.3617   -0.9030    2.2411 F   0  0  0  0  0  0  0  0  0  0  0  0
    5.0317   -0.9030    2.2411 C   0  0  0  0  0  0  0  0  0  0  0  0
    4.5883   -0.2760    3.3270 F   0  0  0  0  0  0  0  0  0  0  0  0
    4.5883   -2.1569    2.2411 F   0  0  0  0  0  0  0  0  0  0  0  0
    4.5250   -0.1865    1.0000 C   0  0  3  0  0  0  0  0  0  0  0  0
    3.0550   -0.1865    1.0000 N   0  0  0  0  0  0  0  0  0  0  0  0
    2.3700    1.0000    1.0000 C   0  0  0  0  0  0  0  0  0  0  0  0
    2.9700    2.0392    1.0000 O   0  0  0  0  0  0  0  0  0  0  0  0
    1.0000    1.0000    1.0000 N   0  0  0  0  0  0  0  0  0  0  0  0
    0.2650    2.2731    1.0000 C   0  0  3  0  0  0  0  0  0  0  0  0
   -0.6089    2.3536   -0.2411 C   0  0  0  0  0  0  0  0  0  0  0  0
   -0.7132    3.3910   -0.8352 O   0  0  0  0  0  0  0  0  0  0  0  0
   -1.2774    1.2418   -0.6814 N   0  0  0  0  0  0  0  0  0  0  0  0
   -2.1225    1.3197   -1.8817 C   0  0  0  0  0  0  0  0  0  0  0  0
   -0.6089    2.3536    2.2411 C   0  0  0  0  0  0  0  0  0  0  0  0
   -1.3690    3.6702    2.2411 C   0  0  0  0  0  0  0  0  0  0  0  0
   -2.6198    3.7437    1.6369 C   0  0  0  0  0  0  0  0  0  0  0  0
   -3.3116    4.9506    1.6384 C   0  0  0  0  0  0  0  0  0  0  0  0
   -2.7525    6.0720    2.2423 C   0  0  0  0  0  0  0  0  0  0  0  0
   -1.5027    5.9867    2.8431 C   0  0  0  0  0  0  0  0  0  0  0  0
   -0.8006    4.7858    2.8477 C   0  0  0  0  0  0  0  0  0  0  0  0
    5.0319   -0.9033   -0.2416 C   0  0  0  0  0  0  0  0  0  0  0  0
    4.5504   -0.2224   -1.4894 C   0  0  0  0  0  0  0  0  0  0  0  0
    3.9199   -1.5116   -1.0468 C   0  0  0  0  0  0  0  0  0  0  0  0
    4.8583    0.7564    1.0000 H   0  0  0  0  0  0  0  0  0  0  0  0
    2.5550   -1.0525    1.0000 H   0  0  0  0  0  0  0  0  0  0  0  0
    0.5000    0.1340    1.0000 H   0  0  0  0  0  0  0  0  0  0  0  0
    0.9148    3.0331    1.0000 H   0  0  0  0  0  0  0  0  0  0  0  0
   -1.1905    0.3773   -0.1864 H   0  0  0  0  0  0  0  0  0  0  0  0
   -2.5325    0.4250   -2.0593 H   0  0  0  0  0  0  0  0  0  0  0  0
   -2.8458    1.9949   -1.7369 H   0  0  0  0  0  0  0  0  0  0  0  0
   -1.5643    1.5921   -2.6653 H   0  0  0  0  0  0  0  0  0  0  0  0
   -1.2587    1.5935    2.2411 H   0  0  0  0  0  0  0  0  0  0  0  0
   -0.0340    2.3006    3.0576 H   0  0  0  0  0  0  0  0  0  0  0  0
   -3.0188    2.9350    1.2047 H   0  0  0  0  0  0  0  0  0  0  0  0
   -4.2109    5.0119    1.2054 H   0  0  0  0  0  0  0  0  0  0  0  0
   -3.2501    6.9394    2.2439 H   0  0  0  0  0  0  0  0  0  0  0  0
   -1.1044    6.7954    3.2760 H   0  0  0  0  0  0  0  0  0  0  0  0
    0.0989    4.7253    3.2805 H   0  0  0  0  0  0  0  0  0  0  0  0
    5.9318   -1.3392   -0.2300 H   0  0  0  0  0  0  0  0  0  0  0  0
    5.1302   -0.2033   -2.3040 H   0  0  0  0  0  0  0  0  0  0  0  0
    4.0367    0.6332   -1.4257 H   0  0  0  0  0  0  0  0  0  0  0  0
    2.9864   -1.5145   -0.6881 H   0  0  0  0  0  0  0  0  0  0  0  0
    4.0799   -2.3509   -1.5664 H   0  0  0  0  0  0  0  0  0  0  0  0
  1  2  1  0  0  0  0
  2  3  1  0  0  0  0
  2  4  1  0  0  0  0
  2  5  1  0  0  0  0
  5  6  1  0  0  0  0
  6  7  1  0  0  0  0
  7  8  2  0  0  0  0
  7  9  1  0  0  0  0
  9 10  1  0  0  0  0
 10 11  1  0  0  0  0
 11 12  2  0  0  0  0
 11 13  1  0  0  0  0
 13 14  1  0  0  0  0
 10 15  1  0  0  0  0
 15 16  1  0  0  0  0
 16 17  1  0  0  0  0
 17 18  2  0  0  0  0
 18 19  1  0  0  0  0
 19 20  2  0  0  0  0
 20 21  1  0  0  0  0
 21 16  2  0  0  0  0
  5 22  1  0  0  0  0
 22 23  1  0  0  0  0
 23 24  1  0  0  0  0
 24 22  1  0  0  0  0
  5 25  1  0  0  0  0
  6 26  1  0  0  0  0
  9 27  1  0  0  0  0
 10 28  1  0  0  0  0
 13 29  1  0  0  0  0
 14 30  1  0  0  0  0
 14 31  1  0  0  0  0
 14 32  1  0  0  0  0
 15 33  1  0  0  0  0
 15 34  1  0  0  0  0
 17 35  1  0  0  0  0
 18 36  1  0  0  0  0
 19 37  1  0  0  0  0
 20 38  1  0  0  0  0
 21 39  1  0  0  0  0
 22 40  1  0  0  0  0
 23 41  1  0  0  0  0
 23 42  1  0  0  0  0
 24 43  1  0  0  0  0
 24 44  1  0  0  0  0
M  END
>  <result-rank>
69

>  <similarity>
0.932

>  <query-name>
LIG_A_1101_2_02

>  <query-smiles>
BrC#CCNC(=O)[C@@H](NC(=O)C)Cc1ccc(O)cc1

>  <source>
REALspace_2019-12

>  <similarity-descriptor>
0.960;0.968;0.968;0.934;1.000;0.995;1.000;1.000;0.852;0.995;1.000;0.0;0.083

>  <similarity-descriptor-smiles>
c1ccccc1;FC(F)F;FC(F)F;C;N;C=O;NC;NC;C(=O)N;C;C;;C1CC1

>  <reaction-name>
s_2430a

>  <reagent1-name>
10229206

>  <reagent1-smiles>
[R1*]C(=O)NC(C(F)(F)F)C1CC1

>  <reagent2-name>
9298134

>  <reagent2-smiles>
[R1*]NC(C(=O)NC)Cc1ccccc1

$$$$
s_22____11619952____58844
          04022015103D 1   1.00000     0.00000     0
            
 38 38  0  0  0  0            999 V2000
   -0.6990   -3.9905   -4.0065 F   0  0  0  0  0  0  0  0  0  0  0  0
   -1.4687   -3.2245   -3.2385 C   0  0  0  0  0  0  0  0  0  0  0  0
   -2.2358   -3.9942   -2.4717 F   0  0  0  0  0  0  0  0  0  0  0  0
   -2.2374   -2.4573   -4.0063 F   0  0  0  0  0  0  0  0  0  0  0  0
   -0.5931   -2.3461   -2.3596 C   0  0  0  0  0  0  0  0  0  0  0  0
   -0.1968   -1.0926   -2.8147 C   0  0  0  0  0  0  0  0  0  0  0  0
    0.6050   -0.2934   -2.0070 C   0  0  0  0  0  0  0  0  0  0  0  0
    0.9998   -0.7553   -0.7553 C   0  0  0  0  0  0  0  0  0  0  0  0
    0.6010   -2.0083   -0.2999 C   0  0  0  0  0  0  0  0  0  0  0  0
   -0.1998   -2.8083   -1.1084 C   0  0  0  0  0  0  0  0  0  0  0  0
    1.8776    0.1224    0.1224 C   0  0  0  0  0  0  0  0  0  0  0  0
    1.0000    1.0000    1.0000 C   0  0  3  0  0  0  0  0  0  0  0  0
    0.1224    1.8776    0.1224 C   0  0  0  0  0  0  0  0  0  0  0  0
   -1.0725    1.7997    0.2003 O   0  0  0  0  0  0  0  0  0  0  0  0
    0.6957    2.7574   -0.7574 N   0  0  0  0  0  0  0  0  0  0  0  0
   -0.1530    3.6061   -1.6061 C   0  0  0  0  0  0  0  0  0  0  0  0
    1.8776    1.8776    1.8776 C   0  0  0  0  0  0  0  0  0  0  0  0
    1.0289    2.7263    2.7263 N   0  0  0  0  0  0  0  0  0  0  0  0
    0.4652    2.2114    3.8639 C   0  0  0  0  0  0  0  0  0  0  0  0
    0.6642    1.0677    4.1675 O   0  0  0  0  0  0  0  0  0  0  0  0
   -0.4124    3.0890    4.7414 C   0  0  0  0  0  0  0  0  0  0  0  0
   -0.4862   -0.7689   -3.7155 H   0  0  0  0  0  0  0  0  0  0  0  0
    0.8963    0.6090   -2.3242 H   0  0  0  0  0  0  0  0  0  0  0  0
    0.8879   -2.3312    0.6019 H   0  0  0  0  0  0  0  0  0  0  0  0
   -0.4911   -3.7109   -0.7915 H   0  0  0  0  0  0  0  0  0  0  0  0
    2.4549    0.6998   -0.4549 H   0  0  0  0  0  0  0  0  0  0  0  0
    2.4549   -0.4549    0.6998 H   0  0  0  0  0  0  0  0  0  0  0  0
    0.4226    0.4226    1.5774 H   0  0  0  0  0  0  0  0  0  0  0  0
    1.6915    2.8223   -0.8223 H   0  0  0  0  0  0  0  0  0  0  0  0
    0.4243    4.1835   -2.1835 H   0  0  0  0  0  0  0  0  0  0  0  0
   -0.7304    3.0288   -2.1835 H   0  0  0  0  0  0  0  0  0  0  0  0
   -0.7304    4.1835   -1.0288 H   0  0  0  0  0  0  0  0  0  0  0  0
    2.4549    1.3002    2.4549 H   0  0  0  0  0  0  0  0  0  0  0  0
    2.4549    2.4549    1.3002 H   0  0  0  0  0  0  0  0  0  0  0  0
    0.8630    3.6794    2.4733 H   0  0  0  0  0  0  0  0  0  0  0  0
   -0.4712    4.0048    4.3442 H   0  0  0  0  0  0  0  0  0  0  0  0
   -1.3282    2.6918    4.8002 H   0  0  0  0  0  0  0  0  0  0  0  0
   -0.0152    3.1478    5.6573 H   0  0  0  0  0  0  0  0  0  0  0  0
  1  2  1  0  0  0  0
  2  3  1  0  0  0  0
  2  4  1  0  0  0  0
  2  5  1  0  0  0  0
  5  6  1  0  0  0  0
  6  7  2  0  0  0  0
  7  8  1  0  0  0  0
  8  9  2  0  0  0  0
  9 10  1  0  0  0  0
 10  5  2  0  0  0  0
  8 11  1  0  0  0  0
 11 12  1  0  0  0  0
 12 13  1  0  0  0  0
 13 14  2  0  0  0  0
 13 15  1  0  0  0  0
 15 16  1  0  0  0  0
 12 17  1  0  0  0  0
 17 18  1  0  0  0  0
 18 19  1  0  0  0  0
 19 20  2  0  0  0  0
 19 21  1  0  0  0  0
  6 22  1  0  0  0  0
  7 23  1  0  0  0  0
  9 24  1  0  0  0  0
 10 25  1  0  0  0  0
 11 26  1  0  0  0  0
 11 27  1  0  0  0  0
 12 28  1  0  0  0  0
 15 29  1  0  0  0  0
 16 30  1  0  0  0  0
 16 31  1  0  0  0  0
 16 32  1  0  0  0  0
 17 33  1  0  0  0  0
 17 34  1  0  0  0  0
 18 35  1  0  0  0  0
 21 36  1  0  0  0  0
 21 37  1  0  0  0  0
 21 38  1  0  0  0  0
M  END
>  <result-rank>
70

>  <similarity>
0.931

>  <query-name>
LIG_A_1101_2_02

>  <query-smiles>
BrC#CCNC(=O)[C@@H](NC(=O)C)Cc1ccc(O)cc1

>  <source>
REALspace_2019-12

>  <similarity-descriptor>
0.944;0.0;0.988;0.988;1.000;1.000;0.996;0.723;1.000;1.000;0.996;0.0;0.0

>  <similarity-descriptor-smiles>
FC(F)(F)c1ccccc1;;C;C;N;C=O;CC;CN;C=O;C;CC;;

>  <reaction-name>
s_22

>  <reagent1-name>
11619952

>  <reagent1-smiles>
[R1*]NCC(C(=O)NC)Cc1ccc(cc1)C(F)(F)F

>  <reagent2-name>
58844

>  <reagent2-smiles>
[R1*]C(=O)C

$$$$
s_22____8930598____1720042
          04022015103D 1   1.00000     0.00000     0
            
 37 37  0  0  0  0            999 V2000
   -0.2210   -2.3520    1.5746 Cl  0  0  0  0  0  0  0  0  0  0  0  0
    0.0446   -1.4029    3.0569 C   0  0  0  0  0  0  0  0  0  0  0  0
   -0.0133   -0.0135    3.0270 C   0  0  0  0  0  0  0  0  0  0  0  0
    0.1959    0.7160    4.1925 C   0  0  0  0  0  0  0  0  0  0  0  0
    0.4627    0.0523    5.3853 C   0  0  0  0  0  0  0  0  0  0  0  0
    0.5199   -1.3369    5.4094 C   0  0  0  0  0  0  0  0  0  0  0  0
    0.3117   -2.0721    4.2469 C   0  0  0  0  0  0  0  0  0  0  0  0
   -0.3059    0.7075    1.7208 C   0  0  0  0  0  0  0  0  0  0  0  0
    1.0000    1.0000    1.0000 C   0  0  3  0  0  0  0  0  0  0  0  0
    1.8487    1.8487    1.8487 N   0  0  0  0  0  0  0  0  0  0  0  0
    3.0831    1.4052    2.2442 C   0  0  0  0  0  0  0  0  0  0  0  0
    3.4716    0.3240    1.8978 O   0  0  0  0  0  0  0  0  0  0  0  0
    3.9607    2.2828    3.1218 C   0  0  0  0  0  0  0  0  0  0  0  0
    5.2666    1.5620    3.4143 C   0  0  0  0  0  0  0  0  0  0  0  0
    5.0106    0.4194    4.0450 F   0  0  0  0  0  0  0  0  0  0  0  0
    5.8973    1.3060    2.2717 F   0  0  0  0  0  0  0  0  0  0  0  0
    6.0344    2.3299    4.1822 F   0  0  0  0  0  0  0  0  0  0  0  0
    0.7075    1.7208   -0.3059 C   0  0  0  0  0  0  0  0  0  0  0  0
   -0.3868    1.6571   -0.7943 O   0  0  0  0  0  0  0  0  0  0  0  0
    1.6499    2.4116   -0.8981 O   0  0  0  0  0  0  0  0  0  0  0  0
    1.3766    3.0850   -2.1180 C   0  0  0  0  0  0  0  0  0  0  0  0
    2.6288    3.8055   -2.5906 C   0  0  0  0  0  0  0  0  0  0  0  0
    0.1545    1.7150    4.1730 H   0  0  0  0  0  0  0  0  0  0  0  0
    0.6133    0.5738    6.2251 H   0  0  0  0  0  0  0  0  0  0  0  0
    0.7121   -1.8109    6.2687 H   0  0  0  0  0  0  0  0  0  0  0  0
    0.3536   -3.0710    4.2664 H   0  0  0  0  0  0  0  0  0  0  0  0
   -0.7801    1.5666    1.9133 H   0  0  0  0  0  0  0  0  0  0  0  0
   -0.8832    0.1301    1.1435 H   0  0  0  0  0  0  0  0  0  0  0  0
    1.4742    0.1409    0.8075 H   0  0  0  0  0  0  0  0  0  0  0  0
    1.5250    2.7498    2.1374 H   0  0  0  0  0  0  0  0  0  0  0  0
    3.4865    2.4753    3.9809 H   0  0  0  0  0  0  0  0  0  0  0  0
    4.1532    3.1419    2.6475 H   0  0  0  0  0  0  0  0  0  0  0  0
    0.6435    3.7498   -1.9748 H   0  0  0  0  0  0  0  0  0  0  0  0
    1.0935    2.4204   -2.8095 H   0  0  0  0  0  0  0  0  0  0  0  0
    2.4364    4.2797   -3.4497 H   0  0  0  0  0  0  0  0  0  0  0  0
    2.9119    4.4702   -1.8991 H   0  0  0  0  0  0  0  0  0  0  0  0
    3.3619    3.1407   -2.7338 H   0  0  0  0  0  0  0  0  0  0  0  0
  1  2  1  0  0  0  0
  2  3  1  0  0  0  0
  3  4  2  0  0  0  0
  4  5  1  0  0  0  0
  5  6  2  0  0  0  0
  6  7  1  0  0  0  0
  7  2  2  0  0  0  0
  3  8  1  0  0  0  0
  8  9  1  0  0  0  0
  9 10  1  0  0  0  0
 10 11  1  0  0  0  0
 11 12  2  0  0  0  0
 11 13  1  0  0  0  0
 13 14  1  0  0  0  0
 14 15  1  0  0  0  0
 14 16  1  0  0  0  0
 14 17  1  0  0  0  0
  9 18  1  0  0  0  0
 18 19  2  0  0  0  0
 18 20  1  0  0  0  0
 20 21  1  0  0  0  0
 21 22  1  0  0  0  0
  4 23  1  0  0  0  0
  5 24  1  0  0  0  0
  6 25  1  0  0  0  0
  7 26  1  0  0  0  0
  8 27  1  0  0  0  0
  8 28  1  0  0  0  0
  9 29  1  0  0  0  0
 10 30  1  0  0  0  0
 13 31  1  0  0  0  0
 13 32  1  0  0  0  0
 21 33  1  0  0  0  0
 21 34  1  0  0  0  0
 22 35  1  0  0  0  0
 22 36  1  0  0  0  0
 22 37  1  0  0  0  0
M  END
>  <result-rank>
71

>  <similarity>
0.931

>  <query-name>
LIG_A_1101_2_02

>  <query-smiles>
BrC#CCNC(=O)[C@@H](NC(=O)C)Cc1ccc(O)cc1

>  <source>
REALspace_2019-12

>  <similarity-descriptor>
0.968;0.968;0.968;0.994;0.852;0.852;1.000;1.000;0.855;0.957;1.000;0.0;0.091

>  <similarity-descriptor-smiles>
Clc1ccccc1;C(F)(F)F;C(F)(F)F;C;C=O;C=O;CN;CN;C(=O)O;C;C;;C

>  <reaction-name>
s_22

>  <reagent1-name>
8930598

>  <reagent1-smiles>
[R1*]NC(C(=O)OCC)Cc1c(Cl)cccc1

>  <reagent2-name>
1720042

>  <reagent2-smiles>
[R1*]C(=O)CC(F)(F)F

$$$$
s_22____9870234____17513450
          04022015103D 1   1.00000     0.00000     0
            
 42 43  0  0  0  0            999 V2000
   -2.1604   -2.3434    4.9709 O   0  0  0  0  0  0  0  0  0  0  0  0
   -2.2628   -1.6697    3.9832 C   0  0  0  0  0  0  0  0  0  0  0  0
   -1.2108   -1.1375    3.3295 O   0  0  0  0  0  0  0  0  0  0  0  0
   -1.6613   -0.4320    2.1865 C   0  0  3  0  0  0  0  0  0  0  0  0
   -3.1700   -0.4371    2.2550 C   0  0  0  0  0  0  0  0  0  0  0  0
   -3.4763   -1.3346    3.3734 N   0  0  0  0  0  0  0  0  0  0  0  0
   -1.1550    1.0000    2.1865 C   0  0  0  0  0  0  0  0  0  0  0  0
    0.3150    1.0000    2.1865 N   0  0  0  0  0  0  0  0  0  0  0  0
    1.0000    1.0000    1.0000 C   0  0  0  0  0  0  0  0  0  0  0  0
    0.4000    1.0000   -0.0392 O   0  0  0  0  0  0  0  0  0  0  0  0
    2.5200    1.0000    1.0000 C   0  0  3  0  0  0  0  0  0  0  0  0
    3.0100    1.6930   -0.2002 N   0  0  0  0  0  0  0  0  0  0  0  0
    3.2383    3.0434   -0.1663 C   0  0  0  0  0  0  0  0  0  0  0  0
    3.0383    3.6605    0.8432 O   0  0  0  0  0  0  0  0  0  0  0  0
    3.7450    3.7599   -1.4074 C   0  0  0  0  0  0  0  0  0  0  0  0
    3.0267   -0.4331    1.0000 C   0  0  0  0  0  0  0  0  0  0  0  0
    4.5467   -0.4331    1.0000 C   0  0  0  0  0  0  0  0  0  0  0  0
    5.2311   -0.4331    2.2110 C   0  0  0  0  0  0  0  0  0  0  0  0
    6.6219   -0.4338    2.2159 C   0  0  0  0  0  0  0  0  0  0  0  0
    7.3116   -0.4351    1.0075 C   0  0  0  0  0  0  0  0  0  0  0  0
    8.7316   -0.4355    1.0077 O   0  0  0  0  0  0  0  0  0  0  0  0
    6.6320   -0.4347   -0.2063 C   0  0  0  0  0  0  0  0  0  0  0  0
    5.2412   -0.4344   -0.2053 C   0  0  0  0  0  0  0  0  0  0  0  0
   -1.3573   -0.9000    1.3566 H   0  0  0  0  0  0  0  0  0  0  0  0
   -3.5201    0.4827    2.4323 H   0  0  0  0  0  0  0  0  0  0  0  0
   -3.5626   -0.7849    1.4036 H   0  0  0  0  0  0  0  0  0  0  0  0
   -4.3846   -1.6489    3.6493 H   0  0  0  0  0  0  0  0  0  0  0  0
   -1.4883    1.4714    1.3700 H   0  0  0  0  0  0  0  0  0  0  0  0
   -1.4883    1.4714    3.0030 H   0  0  0  0  0  0  0  0  0  0  0  0
    0.8150    1.0000    3.0525 H   0  0  0  0  0  0  0  0  0  0  0  0
    2.8533    1.4714    1.8165 H   0  0  0  0  0  0  0  0  0  0  0  0
    3.1767    1.1787   -1.0415 H   0  0  0  0  0  0  0  0  0  0  0  0
    3.8561    3.1005   -2.1510 H   0  0  0  0  0  0  0  0  0  0  0  0
    3.0863    4.4614   -1.6796 H   0  0  0  0  0  0  0  0  0  0  0  0
    4.6259    4.1892   -1.2082 H   0  0  0  0  0  0  0  0  0  0  0  0
    2.6933   -0.9045    1.8165 H   0  0  0  0  0  0  0  0  0  0  0  0
    2.6933   -0.9045    0.1835 H   0  0  0  0  0  0  0  0  0  0  0  0
    4.7256   -0.4325    3.0738 H   0  0  0  0  0  0  0  0  0  0  0  0
    7.1226   -0.4335    3.0815 H   0  0  0  0  0  0  0  0  0  0  0  0
    9.2317   -0.4364    0.1417 H   0  0  0  0  0  0  0  0  0  0  0  0
    7.1374   -0.4347   -1.0692 H   0  0  0  0  0  0  0  0  0  0  0  0
    4.7405   -0.4351   -1.0710 H   0  0  0  0  0  0  0  0  0  0  0  0
  1  2  2  0  0  0  0
  2  3  1  0  0  0  0
  3  4  1  0  0  0  0
  4  5  1  0  0  0  0
  5  6  1  0  0  0  0
  6  2  1  0  0  0  0
  4  7  1  0  0  0  0
  7  8  1  0  0  0  0
  8  9  1  0  0  0  0
  9 10  2  0  0  0  0
  9 11  1  0  0  0  0
 11 12  1  0  0  0  0
 12 13  1  0  0  0  0
 13 14  2  0  0  0  0
 13 15  1  0  0  0  0
 11 16  1  0  0  0  0
 16 17  1  0  0  0  0
 17 18  1  0  0  0  0
 18 19  2  0  0  0  0
 19 20  1  0  0  0  0
 20 21  1  0  0  0  0
 20 22  2  0  0  0  0
 22 23  1  0  0  0  0
 23 17  2  0  0  0  0
  4 24  1  0  0  0  0
  5 25  1  0  0  0  0
  5 26  1  0  0  0  0
  6 27  1  0  0  0  0
  7 28  1  0  0  0  0
  7 29  1  0  0  0  0
  8 30  1  0  0  0  0
 11 31  1  0  0  0  0
 12 32  1  0  0  0  0
 15 33  1  0  0  0  0
 15 34  1  0  0  0  0
 15 35  1  0  0  0  0
 16 36  1  0  0  0  0
 16 37  1  0  0  0  0
 18 38  1  0  0  0  0
 19 39  1  0  0  0  0
 21 40  1  0  0  0  0
 22 41  1  0  0  0  0
 23 42  1  0  0  0  0
M  END
>  <result-rank>
72

>  <similarity>
0.931

>  <query-name>
LIG_A_1101_2_02

>  <query-smiles>
BrC#CCNC(=O)[C@@H](NC(=O)C)Cc1ccc(O)cc1

>  <source>
REALspace_2019-12

>  <similarity-descriptor>
1.000;0.0;0.939;0.939;1.000;1.000;1.000;1.000;1.000;1.000;1.000;1.000;0.091

>  <similarity-descriptor-smiles>
c1ccccc1;;C;C;N;C=O;C;N;C=O;C;C;O;O=C1NCCO1

>  <reaction-name>
s_22

>  <reagent1-name>
9870234

>  <reagent1-smiles>
[R1*]NCC1OC(=O)NC1

>  <reagent2-name>
17513450

>  <reagent2-smiles>
[R1*]C(=O)C(NC(=O)C)Cc1ccc(O)cc1

$$$$
s_527a____7639252____17513452
          04022015103D 1   1.00000     0.00000     0
            
 45 46  0  0  0  0            999 V2000
    0.4000    1.0000   -0.0392 O   0  0  0  0  0  0  0  0  0  0  0  0
    1.0000    1.0000    1.0000 C   0  0  0  0  0  0  0  0  0  0  0  0
    0.3150    1.0000    2.1865 N   0  0  0  0  0  0  0  0  0  0  0  0
   -1.1550    1.0000    2.1865 C   0  0  0  0  0  0  0  0  0  0  0  0
   -1.6616   -0.4110    1.9377 C   0  0  0  0  0  0  0  0  0  0  0  0
   -3.0727   -0.4406    1.9324 O   0  0  0  0  0  0  0  0  0  0  0  0
   -3.4468   -1.6227    1.2504 C   0  0  0  0  0  0  0  0  0  0  0  0
   -2.2525   -1.9058    0.3656 C   0  0  0  0  0  0  0  0  0  0  0  0
   -1.3862   -0.8107    0.6087 O   0  0  0  0  0  0  0  0  0  0  0  0
   -1.0386   -1.3074    2.9936 C   0  0  0  0  0  0  0  0  0  0  0  0
    2.5200    1.0000    1.0000 C   0  0  3  0  0  0  0  0  0  0  0  0
    3.0100    1.0000   -0.3859 N   0  0  0  0  0  0  0  0  0  0  0  0
    3.7976    2.0275   -0.8340 C   0  0  0  0  0  0  0  0  0  0  0  0
    4.0875    2.9275   -0.0951 O   0  0  0  0  0  0  0  0  0  0  0  0
    4.3043    2.0275   -2.2671 C   0  0  0  0  0  0  0  0  0  0  0  0
    3.0267   -0.2411    1.7165 C   0  0  0  0  0  0  0  0  0  0  0  0
    4.5467   -0.2411    1.7165 C   0  0  0  0  0  0  0  0  0  0  0  0
    5.2311    0.3644    2.7653 C   0  0  0  0  0  0  0  0  0  0  0  0
    6.6219    0.3662    2.7699 C   0  0  0  0  0  0  0  0  0  0  0  0
    7.3116   -0.2391    1.7241 C   0  0  0  0  0  0  0  0  0  0  0  0
    8.6614   -0.2393    1.7244 O   0  0  0  0  0  0  0  0  0  0  0  0
    6.6320   -0.8457    0.6727 C   0  0  0  0  0  0  0  0  0  0  0  0
    5.2412   -0.8449    0.6734 C   0  0  0  0  0  0  0  0  0  0  0  0
    0.8150    1.0000    3.0525 H   0  0  0  0  0  0  0  0  0  0  0  0
   -1.4883    1.6060    1.4642 H   0  0  0  0  0  0  0  0  0  0  0  0
   -1.4883    1.3225    3.0724 H   0  0  0  0  0  0  0  0  0  0  0  0
   -4.2710   -1.4753    0.7035 H   0  0  0  0  0  0  0  0  0  0  0  0
   -3.6028   -2.3730    1.8928 H   0  0  0  0  0  0  0  0  0  0  0  0
   -1.8164   -2.7688    0.6207 H   0  0  0  0  0  0  0  0  0  0  0  0
   -2.5220   -1.9403   -0.5968 H   0  0  0  0  0  0  0  0  0  0  0  0
   -0.0422   -1.2395    2.9428 H   0  0  0  0  0  0  0  0  0  0  0  0
   -1.3467   -1.0185    3.9000 H   0  0  0  0  0  0  0  0  0  0  0  0
   -1.3168   -2.2544    2.8331 H   0  0  0  0  0  0  0  0  0  0  0  0
    2.8533    1.8165    1.4714 H   0  0  0  0  0  0  0  0  0  0  0  0
    2.7684    0.2500   -1.0017 H   0  0  0  0  0  0  0  0  0  0  0  0
    3.9710    1.2110   -2.7385 H   0  0  0  0  0  0  0  0  0  0  0  0
    3.9710    2.8440   -2.7385 H   0  0  0  0  0  0  0  0  0  0  0  0
    5.3043    2.0275   -2.2671 H   0  0  0  0  0  0  0  0  0  0  0  0
    2.6933   -0.2411    2.6593 H   0  0  0  0  0  0  0  0  0  0  0  0
    2.6933   -1.0576    1.2451 H   0  0  0  0  0  0  0  0  0  0  0  0
    4.7256    0.7963    3.5122 H   0  0  0  0  0  0  0  0  0  0  0  0
    7.1226    0.7993    3.5194 H   0  0  0  0  0  0  0  0  0  0  0  0
    9.1615   -0.6731    0.9749 H   0  0  0  0  0  0  0  0  0  0  0  0
    7.1374   -1.2771   -0.0746 H   0  0  0  0  0  0  0  0  0  0  0  0
    4.7405   -1.2783   -0.0759 H   0  0  0  0  0  0  0  0  0  0  0  0
  1  2  2  0  0  0  0
  2  3  1  0  0  0  0
  3  4  1  0  0  0  0
  4  5  1  0  0  0  0
  5  6  1  0  0  0  0
  6  7  1  0  0  0  0
  7  8  1  0  0  0  0
  8  9  1  0  0  0  0
  9  5  1  0  0  0  0
  5 10  1  0  0  0  0
  2 11  1  0  0  0  0
 11 12  1  0  0  0  0
 12 13  1  0  0  0  0
 13 14  2  0  0  0  0
 13 15  1  0  0  0  0
 11 16  1  0  0  0  0
 16 17  1  0  0  0  0
 17 18  1  0  0  0  0
 18 19  2  0  0  0  0
 19 20  1  0  0  0  0
 20 21  1  0  0  0  0
 20 22  2  0  0  0  0
 22 23  1  0  0  0  0
 23 17  2  0  0  0  0
  3 24  1  0  0  0  0
  4 25  1  0  0  0  0
  4 26  1  0  0  0  0
  7 27  1  0  0  0  0
  7 28  1  0  0  0  0
  8 29  1  0  0  0  0
  8 30  1  0  0  0  0
 10 31  1  0  0  0  0
 10 32  1  0  0  0  0
 10 33  1  0  0  0  0
 11 34  1  0  0  0  0
 12 35  1  0  0  0  0
 15 36  1  0  0  0  0
 15 37  1  0  0  0  0
 15 38  1  0  0  0  0
 16 39  1  0  0  0  0
 16 40  1  0  0  0  0
 18 41  1  0  0  0  0
 19 42  1  0  0  0  0
 21 43  1  0  0  0  0
 22 44  1  0  0  0  0
 23 45  1  0  0  0  0
M  END
>  <result-rank>
73

>  <similarity>
0.931

>  <query-name>
LIG_A_1101_2_02

>  <query-smiles>
BrC#CCNC(=O)[C@@H](NC(=O)C)Cc1ccc(O)cc1

>  <source>
REALspace_2019-12

>  <similarity-descriptor>
1.000;0.0;0.939;0.939;1.000;1.000;1.000;1.000;1.000;1.000;1.000;1.000;0.167

>  <similarity-descriptor-smiles>
c1ccccc1;;C;C;N;O=C;C;N;C=O;C;C;O;C1OCCO1.C

>  <reaction-name>
s_527a

>  <reagent1-name>
7639252

>  <reagent1-smiles>
[R1*]NCC1(OCCO1)C

>  <reagent2-name>
17513452

>  <reagent2-smiles>
[R1*]C(=O)C(NC(=O)C)Cc1ccc(O)cc1

$$$$
s_22____8601360____17513450
          04022015103D 1   1.00000     0.00000     0
            
 41 42  0  0  0  0            999 V2000
   -1.9803   -1.3344    3.5936 S   0  0  0  0  0  0  0  0  0  0  0  0
   -1.6611   -0.4315    2.1865 C   0  0  0  0  0  0  0  0  0  0  0  0
   -1.9384   -1.2060    1.1665 N   0  0  0  0  0  0  0  0  0  0  0  0
   -2.3701   -2.4227    1.4541 N   0  0  0  0  0  0  0  0  0  0  0  0
   -2.4687   -2.7151    2.7285 C   0  0  0  0  0  0  0  0  0  0  0  0
   -2.9390   -4.0222    3.3456 C   0  0  0  0  0  0  0  0  0  0  0  0
   -1.1550    1.0000    2.1865 C   0  0  0  0  0  0  0  0  0  0  0  0
    0.3150    1.0000    2.1865 N   0  0  0  0  0  0  0  0  0  0  0  0
    1.0000    1.0000    1.0000 C   0  0  0  0  0  0  0  0  0  0  0  0
    0.4000    1.0000   -0.0392 O   0  0  0  0  0  0  0  0  0  0  0  0
    2.5200    1.0000    1.0000 C   0  0  3  0  0  0  0  0  0  0  0  0
    3.0100    1.6930   -0.2002 N   0  0  0  0  0  0  0  0  0  0  0  0
    3.2383    3.0434   -0.1663 C   0  0  0  0  0  0  0  0  0  0  0  0
    3.0383    3.6605    0.8432 O   0  0  0  0  0  0  0  0  0  0  0  0
    3.7450    3.7599   -1.4074 C   0  0  0  0  0  0  0  0  0  0  0  0
    3.0267   -0.4331    1.0000 C   0  0  0  0  0  0  0  0  0  0  0  0
    4.5467   -0.4331    1.0000 C   0  0  0  0  0  0  0  0  0  0  0  0
    5.2311   -0.4331    2.2110 C   0  0  0  0  0  0  0  0  0  0  0  0
    6.6219   -0.4338    2.2159 C   0  0  0  0  0  0  0  0  0  0  0  0
    7.3116   -0.4351    1.0075 C   0  0  0  0  0  0  0  0  0  0  0  0
    8.7316   -0.4355    1.0077 O   0  0  0  0  0  0  0  0  0  0  0  0
    6.6320   -0.4347   -0.2063 C   0  0  0  0  0  0  0  0  0  0  0  0
    5.2412   -0.4344   -0.2053 C   0  0  0  0  0  0  0  0  0  0  0  0
   -3.1667   -4.6708    2.6193 H   0  0  0  0  0  0  0  0  0  0  0  0
   -2.2109   -4.4025    3.9160 H   0  0  0  0  0  0  0  0  0  0  0  0
   -3.7487   -3.8532    3.9075 H   0  0  0  0  0  0  0  0  0  0  0  0
   -1.4883    1.4714    1.3700 H   0  0  0  0  0  0  0  0  0  0  0  0
   -1.4883    1.4714    3.0030 H   0  0  0  0  0  0  0  0  0  0  0  0
    0.8150    1.0000    3.0525 H   0  0  0  0  0  0  0  0  0  0  0  0
    2.8533    1.4714    1.8165 H   0  0  0  0  0  0  0  0  0  0  0  0
    3.1767    1.1787   -1.0415 H   0  0  0  0  0  0  0  0  0  0  0  0
    3.8561    3.1005   -2.1510 H   0  0  0  0  0  0  0  0  0  0  0  0
    3.0863    4.4614   -1.6796 H   0  0  0  0  0  0  0  0  0  0  0  0
    4.6259    4.1892   -1.2082 H   0  0  0  0  0  0  0  0  0  0  0  0
    2.6933   -0.9045    1.8165 H   0  0  0  0  0  0  0  0  0  0  0  0
    2.6933   -0.9045    0.1835 H   0  0  0  0  0  0  0  0  0  0  0  0
    4.7256   -0.4325    3.0738 H   0  0  0  0  0  0  0  0  0  0  0  0
    7.1226   -0.4335    3.0815 H   0  0  0  0  0  0  0  0  0  0  0  0
    9.2317   -0.4364    0.1417 H   0  0  0  0  0  0  0  0  0  0  0  0
    7.1374   -0.4347   -1.0692 H   0  0  0  0  0  0  0  0  0  0  0  0
    4.7405   -0.4351   -1.0710 H   0  0  0  0  0  0  0  0  0  0  0  0
  1  2  1  0  0  0  0
  2  3  2  0  0  0  0
  3  4  1  0  0  0  0
  4  5  2  0  0  0  0
  5  1  1  0  0  0  0
  5  6  1  0  0  0  0
  2  7  1  0  0  0  0
  7  8  1  0  0  0  0
  8  9  1  0  0  0  0
  9 10  2  0  0  0  0
  9 11  1  0  0  0  0
 11 12  1  0  0  0  0
 12 13  1  0  0  0  0
 13 14  2  0  0  0  0
 13 15  1  0  0  0  0
 11 16  1  0  0  0  0
 16 17  1  0  0  0  0
 17 18  1  0  0  0  0
 18 19  2  0  0  0  0
 19 20  1  0  0  0  0
 20 21  1  0  0  0  0
 20 22  2  0  0  0  0
 22 23  1  0  0  0  0
 23 17  2  0  0  0  0
  6 24  1  0  0  0  0
  6 25  1  0  0  0  0
  6 26  1  0  0  0  0
  7 27  1  0  0  0  0
  7 28  1  0  0  0  0
  8 29  1  0  0  0  0
 11 30  1  0  0  0  0
 12 31  1  0  0  0  0
 15 32  1  0  0  0  0
 15 33  1  0  0  0  0
 15 34  1  0  0  0  0
 16 35  1  0  0  0  0
 16 36  1  0  0  0  0
 18 37  1  0  0  0  0
 19 38  1  0  0  0  0
 21 39  1  0  0  0  0
 22 40  1  0  0  0  0
 23 41  1  0  0  0  0
M  END
>  <result-rank>
74

>  <similarity>
0.931

>  <query-name>
LIG_A_1101_2_02

>  <query-smiles>
BrC#CCNC(=O)[C@@H](NC(=O)C)Cc1ccc(O)cc1

>  <source>
REALspace_2019-12

>  <similarity-descriptor>
1.000;0.0;0.939;0.939;1.000;1.000;1.000;1.000;1.000;1.000;1.000;1.000;0.167

>  <similarity-descriptor-smiles>
c1ccccc1;;C;C;N;C=O;C;N;C=O;C;C;O;S1C=NN=C1.C

>  <reaction-name>
s_22

>  <reagent1-name>
8601360

>  <reagent1-smiles>
[R1*]NCC=1SC(=NN1)C

>  <reagent2-name>
17513450

>  <reagent2-smiles>
[R1*]C(=O)C(NC(=O)C)Cc1ccc(O)cc1

$$$$
s_527a____9016336____17513452
          04022015103D 1   1.00000     0.00000     0
            
 40 41  0  0  0  0            999 V2000
    0.4000    1.0000   -0.0392 O   0  0  0  0  0  0  0  0  0  0  0  0
    1.0000    1.0000    1.0000 C   0  0  0  0  0  0  0  0  0  0  0  0
    0.3150    1.0000    2.1865 N   0  0  0  0  0  0  0  0  0  0  0  0
   -1.1550    1.0000    2.1865 C   0  0  0  0  0  0  0  0  0  0  0  0
   -1.6618   -0.4333    2.1865 C   0  0  0  0  0  0  0  0  0  0  0  0
   -1.9141   -1.1470    3.2568 O   0  0  0  0  0  0  0  0  0  0  0  0
   -2.3267   -2.3169    2.8318 C   0  0  0  0  0  0  0  0  0  0  0  0
   -2.3299   -2.3266    1.5191 N   0  0  0  0  0  0  0  0  0  0  0  0
   -1.9143   -1.1487    1.1148 N   0  0  0  0  0  0  0  0  0  0  0  0
   -2.7255   -3.4408    3.6912 N   0  0  0  0  0  0  0  0  0  0  0  0
    2.5200    1.0000    1.0000 C   0  0  3  0  0  0  0  0  0  0  0  0
    3.0100    1.6930   -0.2002 N   0  0  0  0  0  0  0  0  0  0  0  0
    3.2383    3.0434   -0.1663 C   0  0  0  0  0  0  0  0  0  0  0  0
    3.0383    3.6605    0.8432 O   0  0  0  0  0  0  0  0  0  0  0  0
    3.7450    3.7599   -1.4074 C   0  0  0  0  0  0  0  0  0  0  0  0
    3.0267   -0.4331    1.0000 C   0  0  0  0  0  0  0  0  0  0  0  0
    4.5467   -0.4331    1.0000 C   0  0  0  0  0  0  0  0  0  0  0  0
    5.2311   -0.4331    2.2110 C   0  0  0  0  0  0  0  0  0  0  0  0
    6.6219   -0.4338    2.2159 C   0  0  0  0  0  0  0  0  0  0  0  0
    7.3116   -0.4351    1.0075 C   0  0  0  0  0  0  0  0  0  0  0  0
    8.7316   -0.4355    1.0077 O   0  0  0  0  0  0  0  0  0  0  0  0
    6.6320   -0.4347   -0.2063 C   0  0  0  0  0  0  0  0  0  0  0  0
    5.2412   -0.4344   -0.2053 C   0  0  0  0  0  0  0  0  0  0  0  0
    0.8150    1.0000    3.0525 H   0  0  0  0  0  0  0  0  0  0  0  0
   -1.4883    1.4714    1.3700 H   0  0  0  0  0  0  0  0  0  0  0  0
   -1.4883    1.4714    3.0030 H   0  0  0  0  0  0  0  0  0  0  0  0
   -3.0286   -4.3009    3.2809 H   0  0  0  0  0  0  0  0  0  0  0  0
   -2.6936   -3.3454    4.6861 H   0  0  0  0  0  0  0  0  0  0  0  0
    2.8533    1.4714    1.8165 H   0  0  0  0  0  0  0  0  0  0  0  0
    3.1767    1.1787   -1.0415 H   0  0  0  0  0  0  0  0  0  0  0  0
    3.8561    3.1005   -2.1510 H   0  0  0  0  0  0  0  0  0  0  0  0
    3.0863    4.4614   -1.6796 H   0  0  0  0  0  0  0  0  0  0  0  0
    4.6259    4.1892   -1.2082 H   0  0  0  0  0  0  0  0  0  0  0  0
    2.6933   -0.9045    1.8165 H   0  0  0  0  0  0  0  0  0  0  0  0
    2.6933   -0.9045    0.1835 H   0  0  0  0  0  0  0  0  0  0  0  0
    4.7256   -0.4325    3.0738 H   0  0  0  0  0  0  0  0  0  0  0  0
    7.1226   -0.4335    3.0815 H   0  0  0  0  0  0  0  0  0  0  0  0
    9.2317   -0.4364    0.1417 H   0  0  0  0  0  0  0  0  0  0  0  0
    7.1374   -0.4347   -1.0692 H   0  0  0  0  0  0  0  0  0  0  0  0
    4.7405   -0.4351   -1.0710 H   0  0  0  0  0  0  0  0  0  0  0  0
  1  2  2  0  0  0  0
  2  3  1  0  0  0  0
  3  4  1  0  0  0  0
  4  5  1  0  0  0  0
  5  6  1  0  0  0  0
  6  7  1  0  0  0  0
  7  8  2  0  0  0  0
  8  9  1  0  0  0  0
  5  9  2  0  0  0  0
  7 10  1  0  0  0  0
  2 11  1  0  0  0  0
 11 12  1  0  0  0  0
 12 13  1  0  0  0  0
 13 14  2  0  0  0  0
 13 15  1  0  0  0  0
 11 16  1  0  0  0  0
 16 17  1  0  0  0  0
 17 18  1  0  0  0  0
 18 19  2  0  0  0  0
 19 20  1  0  0  0  0
 20 21  1  0  0  0  0
 20 22  2  0  0  0  0
 22 23  1  0  0  0  0
 23 17  2  0  0  0  0
  3 24  1  0  0  0  0
  4 25  1  0  0  0  0
  4 26  1  0  0  0  0
 10 27  1  0  0  0  0
 10 28  1  0  0  0  0
 11 29  1  0  0  0  0
 12 30  1  0  0  0  0
 15 31  1  0  0  0  0
 15 32  1  0  0  0  0
 15 33  1  0  0  0  0
 16 34  1  0  0  0  0
 16 35  1  0  0  0  0
 18 36  1  0  0  0  0
 19 37  1  0  0  0  0
 21 38  1  0  0  0  0
 22 39  1  0  0  0  0
 23 40  1  0  0  0  0
M  END
>  <result-rank>
75

>  <similarity>
0.931

>  <query-name>
LIG_A_1101_2_02

>  <query-smiles>
BrC#CCNC(=O)[C@@H](NC(=O)C)Cc1ccc(O)cc1

>  <source>
REALspace_2019-12

>  <similarity-descriptor>
1.000;0.0;0.939;0.939;1.000;1.000;1.000;1.000;1.000;1.000;1.000;1.000;0.167

>  <similarity-descriptor-smiles>
c1ccccc1;;C;C;N;O=C;C;N;C=O;C;C;O;C1=NN=CO1.N

>  <reaction-name>
s_527a

>  <reagent1-name>
9016336

>  <reagent1-smiles>
[R1*]NCC=1OC(=NN1)N

>  <reagent2-name>
17513452

>  <reagent2-smiles>
[R1*]C(=O)C(NC(=O)C)Cc1ccc(O)cc1

$$$$
s_22____2014098____17064022
          04022015103D 1   1.00000     0.00000     0
            
 54 54  0  0  0  0            999 V2000
    3.4716    0.3240    1.8978 O   0  0  0  0  0  0  0  0  0  0  0  0
    3.0831    1.4052    2.2442 C   0  0  0  0  0  0  0  0  0  0  0  0
    1.8487    1.8487    1.8487 N   0  0  0  0  0  0  0  0  0  0  0  0
    1.0000    1.0000    1.0000 C   0  0  3  0  0  0  0  0  0  0  0  0
    0.7075    1.7208   -0.3059 C   0  0  0  0  0  0  0  0  0  0  0  0
   -0.3868    1.6571   -0.7943 O   0  0  0  0  0  0  0  0  0  0  0  0
    1.6931    2.4433   -0.9252 N   0  0  0  0  0  0  0  0  0  0  0  0
    1.4102    3.1404   -2.1881 C   0  0  0  0  0  0  0  0  0  0  0  0
    2.6623    3.8609   -2.6606 C   0  0  0  0  0  0  0  0  0  0  0  0
    2.3698    4.5817   -3.9665 C   0  0  0  0  0  0  0  0  0  0  0  0
    3.0927    4.8711   -1.6096 C   0  0  0  0  0  0  0  0  0  0  0  0
    3.7767    2.8503   -2.8783 C   0  0  0  0  0  0  0  0  0  0  0  0
   -0.3059    0.7075    1.7208 C   0  0  0  0  0  0  0  0  0  0  0  0
   -0.0133   -0.0134    3.0267 C   0  0  0  0  0  0  0  0  0  0  0  0
    0.1949    0.7274    4.1855 C   0  0  0  0  0  0  0  0  0  0  0  0
    0.4621    0.0721    5.3829 C   0  0  0  0  0  0  0  0  0  0  0  0
    0.5173   -1.3180    5.4060 C   0  0  0  0  0  0  0  0  0  0  0  0
    0.7767   -1.9580    6.5658 O   0  0  0  0  0  0  0  0  0  0  0  0
    0.3102   -2.0634    4.2499 C   0  0  0  0  0  0  0  0  0  0  0  0
    0.0429   -1.4030    3.0554 C   0  0  0  0  0  0  0  0  0  0  0  0
    3.9607    2.2828    3.1218 C   0  0  3  0  0  0  0  0  0  0  0  0
    3.2399    2.5753    4.4276 C   0  0  0  0  0  0  0  0  0  0  0  0
    4.1175    3.4529    5.3052 C   0  0  0  0  0  0  0  0  0  0  0  0
    5.2666    1.5620    3.4143 C   0  0  0  0  0  0  0  0  0  0  0  0
    1.5250    2.7498    2.1374 H   0  0  0  0  0  0  0  0  0  0  0  0
    1.4742    0.1409    0.8075 H   0  0  0  0  0  0  0  0  0  0  0  0
    2.6049    2.4964   -0.5181 H   0  0  0  0  0  0  0  0  0  0  0  0
    0.6770    3.8052   -2.0449 H   0  0  0  0  0  0  0  0  0  0  0  0
    1.1271    2.4757   -2.8795 H   0  0  0  0  0  0  0  0  0  0  0  0
    3.1936    5.0557   -4.2774 H   0  0  0  0  0  0  0  0  0  0  0  0
    2.0867    3.9170   -4.6579 H   0  0  0  0  0  0  0  0  0  0  0  0
    1.6367    5.2465   -3.8233 H   0  0  0  0  0  0  0  0  0  0  0  0
    3.9165    5.3452   -1.9205 H   0  0  0  0  0  0  0  0  0  0  0  0
    2.3595    5.5360   -1.4664 H   0  0  0  0  0  0  0  0  0  0  0  0
    3.2851    4.3969   -0.7505 H   0  0  0  0  0  0  0  0  0  0  0  0
    4.6005    3.3244   -3.1892 H   0  0  0  0  0  0  0  0  0  0  0  0
    3.9692    2.3761   -2.0192 H   0  0  0  0  0  0  0  0  0  0  0  0
    3.4936    2.1857   -3.5698 H   0  0  0  0  0  0  0  0  0  0  0  0
   -0.7801    1.5666    1.9133 H   0  0  0  0  0  0  0  0  0  0  0  0
   -0.8832    0.1301    1.1435 H   0  0  0  0  0  0  0  0  0  0  0  0
    0.1526    1.7261    4.1579 H   0  0  0  0  0  0  0  0  0  0  0  0
    0.6134    0.5962    6.2210 H   0  0  0  0  0  0  0  0  0  0  0  0
    0.8174   -2.9569    6.5874 H   0  0  0  0  0  0  0  0  0  0  0  0
    0.3529   -3.0622    4.2773 H   0  0  0  0  0  0  0  0  0  0  0  0
   -0.1088   -1.9271    2.2174 H   0  0  0  0  0  0  0  0  0  0  0  0
    4.1532    3.1419    2.6475 H   0  0  0  0  0  0  0  0  0  0  0  0
    3.0475    1.7162    4.9018 H   0  0  0  0  0  0  0  0  0  0  0  0
    2.3808    3.0496    4.2352 H   0  0  0  0  0  0  0  0  0  0  0  0
    3.6433    3.6454    6.1643 H   0  0  0  0  0  0  0  0  0  0  0  0
    4.9766    2.9787    5.4976 H   0  0  0  0  0  0  0  0  0  0  0  0
    4.3099    4.3120    4.8310 H   0  0  0  0  0  0  0  0  0  0  0  0
    5.8439    2.1394    3.9916 H   0  0  0  0  0  0  0  0  0  0  0  0
    5.0741    0.7029    3.8885 H   0  0  0  0  0  0  0  0  0  0  0  0
    5.7408    1.3696    2.5552 H   0  0  0  0  0  0  0  0  0  0  0  0
  1  2  2  0  0  0  0
  2  3  1  0  0  0  0
  3  4  1  0  0  0  0
  4  5  1  0  0  0  0
  5  6  2  0  0  0  0
  5  7  1  0  0  0  0
  7  8  1  0  0  0  0
  8  9  1  0  0  0  0
  9 10  1  0  0  0  0
  9 11  1  0  0  0  0
  9 12  1  0  0  0  0
  4 13  1  0  0  0  0
 13 14  1  0  0  0  0
 14 15  1  0  0  0  0
 15 16  2  0  0  0  0
 16 17  1  0  0  0  0
 17 18  1  0  0  0  0
 17 19  2  0  0  0  0
 19 20  1  0  0  0  0
 20 14  2  0  0  0  0
  2 21  1  0  0  0  0
 21 22  1  0  0  0  0
 22 23  1  0  0  0  0
 21 24  1  0  0  0  0
  3 25  1  0  0  0  0
  4 26  1  0  0  0  0
  7 27  1  0  0  0  0
  8 28  1  0  0  0  0
  8 29  1  0  0  0  0
 10 30  1  0  0  0  0
 10 31  1  0  0  0  0
 10 32  1  0  0  0  0
 11 33  1  0  0  0  0
 11 34  1  0  0  0  0
 11 35  1  0  0  0  0
 12 36  1  0  0  0  0
 12 37  1  0  0  0  0
 12 38  1  0  0  0  0
 13 39  1  0  0  0  0
 13 40  1  0  0  0  0
 15 41  1  0  0  0  0
 16 42  1  0  0  0  0
 18 43  1  0  0  0  0
 19 44  1  0  0  0  0
 20 45  1  0  0  0  0
 21 46  1  0  0  0  0
 22 47  1  0  0  0  0
 22 48  1  0  0  0  0
 23 49  1  0  0  0  0
 23 50  1  0  0  0  0
 23 51  1  0  0  0  0
 24 52  1  0  0  0  0
 24 53  1  0  0  0  0
 24 54  1  0  0  0  0
M  END
>  <result-rank>
76

>  <similarity>
0.930

>  <query-name>
LIG_A_1101_2_02

>  <query-smiles>
BrC#CCNC(=O)[C@@H](NC(=O)C)Cc1ccc(O)cc1

>  <source>
REALspace_2019-12

>  <similarity-descriptor>
1.000;0.871;0.871;0.871;1.000;1.000;1.000;1.000;0.890;1.000;1.000;1.000;0.294

>  <similarity-descriptor-smiles>
c1ccccc1;CC;CC;CC;N;C=O;C;N;O=CC;C;C;O;C.C.C.C.C

>  <reaction-name>
s_22

>  <reagent1-name>
2014098

>  <reagent1-smiles>
[R1*]NCC(C)(C)C

>  <reagent2-name>
17064022

>  <reagent2-smiles>
[R1*]C(=O)C(NC(=O)C(CC)C)Cc1ccc(O)cc1

$$$$
s_22____10176574____14577636
          04022015103D 1   1.00000     0.00000     0
            
 30 31  0  0  0  0            999 V2000
    4.9367    1.0000   -0.4331 Br  0  0  0  0  0  0  0  0  0  0  0  0
    2.9767    1.0000   -0.4331 C   0  0  0  0  0  0  0  0  0  0  0  0
    2.5333   -0.0859   -1.0600 F   0  0  0  0  0  0  0  0  0  0  0  0
    2.5333    2.0859   -1.0600 F   0  0  0  0  0  0  0  0  0  0  0  0
    2.4700    1.0000    1.0000 C   0  0  0  0  0  0  0  0  0  0  0  0
    1.0000    1.0000    1.0000 N   0  0  0  0  0  0  0  0  0  0  0  0
    0.3150    1.0000    2.1865 C   0  0  0  0  0  0  0  0  0  0  0  0
    0.9150    1.0000    3.2257 O   0  0  0  0  0  0  0  0  0  0  0  0
   -1.2052    1.0000    2.1865 C   0  0  3  0  0  0  0  0  0  0  0  0
   -1.7618   -0.2264    1.4784 C   0  0  0  0  0  0  0  0  0  0  0  0
   -1.1377   -1.2749    1.4291 O   0  0  0  0  0  0  0  0  0  0  0  0
   -3.0245   -0.1464    0.8761 N   0  0  0  0  0  0  0  0  0  0  0  0
   -3.7913    1.0229    0.9459 C   0  0  0  0  0  0  0  0  0  0  0  0
   -3.1645    2.2300    1.2384 C   0  0  0  0  0  0  0  0  0  0  0  0
   -3.8894    3.4164    1.3020 C   0  0  0  0  0  0  0  0  0  0  0  0
   -5.2606    3.3898    1.0723 C   0  0  0  0  0  0  0  0  0  0  0  0
   -5.9070    2.1933    0.7805 C   0  0  0  0  0  0  0  0  0  0  0  0
   -5.1634    1.0188    0.7202 C   0  0  0  0  0  0  0  0  0  0  0  0
   -1.6673    2.2753    1.4988 C   0  0  0  0  0  0  0  0  0  0  0  0
    2.8033    0.1835    1.4714 H   0  0  0  0  0  0  0  0  0  0  0  0
    2.8033    1.8165    1.4714 H   0  0  0  0  0  0  0  0  0  0  0  0
    0.5000    1.0000    0.1340 H   0  0  0  0  0  0  0  0  0  0  0  0
   -1.5302    1.0047    3.1322 H   0  0  0  0  0  0  0  0  0  0  0  0
   -3.3851   -0.9404    0.3866 H   0  0  0  0  0  0  0  0  0  0  0  0
   -3.4289    4.2792    1.5108 H   0  0  0  0  0  0  0  0  0  0  0  0
   -5.7869    4.2389    1.1172 H   0  0  0  0  0  0  0  0  0  0  0  0
   -6.8932    2.1774    0.6162 H   0  0  0  0  0  0  0  0  0  0  0  0
   -5.6239    0.1562    0.5108 H   0  0  0  0  0  0  0  0  0  0  0  0
   -1.4590    3.0586    2.0846 H   0  0  0  0  0  0  0  0  0  0  0  0
   -1.1850    2.3726    0.6282 H   0  0  0  0  0  0  0  0  0  0  0  0
  1  2  1  0  0  0  0
  2  3  1  0  0  0  0
  2  4  1  0  0  0  0
  2  5  1  0  0  0  0
  5  6  1  0  0  0  0
  6  7  1  0  0  0  0
  7  8  2  0  0  0  0
  7  9  1  0  0  0  0
  9 10  1  0  0  0  0
 10 11  2  0  0  0  0
 10 12  1  0  0  0  0
 12 13  1  0  0  0  0
 13 14  1  0  0  0  0
 14 15  2  0  0  0  0
 15 16  1  0  0  0  0
 16 17  2  0  0  0  0
 17 18  1  0  0  0  0
 18 13  2  0  0  0  0
 14 19  1  0  0  0  0
 19  9  1  0  0  0  0
  5 20  1  0  0  0  0
  5 21  1  0  0  0  0
  6 22  1  0  0  0  0
  9 23  1  0  0  0  0
 12 24  1  0  0  0  0
 15 25  1  0  0  0  0
 16 26  1  0  0  0  0
 17 27  1  0  0  0  0
 18 28  1  0  0  0  0
 19 29  1  0  0  0  0
 19 30  1  0  0  0  0
M  END
>  <result-rank>
77

>  <similarity>
0.930

>  <query-name>
LIG_A_1101_2_02

>  <query-smiles>
BrC#CCNC(=O)[C@@H](NC(=O)C)Cc1ccc(O)cc1

>  <source>
REALspace_2019-12

>  <similarity-descriptor>
0.983;0.986;0.986;0.999;1.000;1.000;0.842;0.842;0.842;0.0;0.842;0.0;0.0

>  <similarity-descriptor-smiles>
c1ccccc1;BrC(F)F;BrC(F)F;C;N;C=O;C1CccNC1=O;C1CccNC1=O;C1CccNC1=O;;C1CccNC1=O;;

>  <reaction-name>
s_22

>  <reagent1-name>
10176574

>  <reagent1-smiles>
[R1*]NCC(Br)(F)F

>  <reagent2-name>
14577636

>  <reagent2-smiles>
[R1*]C(=O)C1C(=O)Nc2c(cccc2)C1

$$$$
s_22____10117792____17057108
          04022015103D 1   1.00000     0.00000     0
            
 50 50  0  0  0  0            999 V2000
    1.1058    3.7591    4.4970 O   0  0  0  0  0  0  0  0  0  0  0  0
    2.1022    4.2528    4.0460 C   0  0  0  0  0  0  0  0  0  0  0  0
    2.8586    5.0091    4.8023 O   0  0  0  0  0  0  0  0  0  0  0  0
    2.4993    5.2447    6.1558 C   0  0  0  0  0  0  0  0  0  0  0  0
    2.4488    4.0256    2.7402 N   0  0  0  0  0  0  0  0  0  0  0  0
    1.6504    3.2271    1.9417 N   0  0  0  0  0  0  0  0  0  0  0  0
    1.8776    1.8776    1.8776 C   0  0  0  0  0  0  0  0  0  0  0  0
    2.7694    1.3883    2.5142 O   0  0  0  0  0  0  0  0  0  0  0  0
    1.0000    1.0000    1.0000 C   0  0  3  0  0  0  0  0  0  0  0  0
    0.7171    1.6971   -0.2629 N   0  0  0  0  0  0  0  0  0  0  0  0
    1.1013    1.1397   -1.4540 C   0  0  0  0  0  0  0  0  0  0  0  0
    1.5876    0.0429   -1.4739 O   0  0  0  0  0  0  0  0  0  0  0  0
    0.9116    1.9107   -2.7501 C   0  0  0  0  0  0  0  0  0  0  0  0
    2.0609    1.6024   -3.6959 C   0  0  0  0  0  0  0  0  0  0  0  0
    1.6307    1.8866   -5.1257 C   0  0  0  0  0  0  0  0  0  0  0  0
    3.2551    2.4743   -3.3432 C   0  0  0  0  0  0  0  0  0  0  0  0
   -0.3059    0.7075    1.7208 C   0  0  0  0  0  0  0  0  0  0  0  0
   -1.1835   -0.1701    0.8432 C   0  0  0  0  0  0  0  0  0  0  0  0
   -1.0842   -1.5540    0.9425 C   0  0  0  0  0  0  0  0  0  0  0  0
   -1.8857   -2.3610    0.1420 C   0  0  0  0  0  0  0  0  0  0  0  0
   -2.7781   -1.7726   -0.7486 C   0  0  0  0  0  0  0  0  0  0  0  0
   -3.5577   -2.5520   -1.5276 O   0  0  0  0  0  0  0  0  0  0  0  0
   -2.8811   -0.3891   -0.8520 C   0  0  0  0  0  0  0  0  0  0  0  0
   -2.0774    0.4131   -0.0489 C   0  0  0  0  0  0  0  0  0  0  0  0
    3.6695    4.6304    2.1878 C   0  0  0  0  0  0  0  0  0  0  0  0
    3.1812    5.8382    6.5832 H   0  0  0  0  0  0  0  0  0  0  0  0
    1.6033    5.6874    6.1906 H   0  0  0  0  0  0  0  0  0  0  0  0
    2.4604    4.3743    6.6467 H   0  0  0  0  0  0  0  0  0  0  0  0
    0.9072    3.6348    1.4112 H   0  0  0  0  0  0  0  0  0  0  0  0
    1.4742    0.1409    0.8075 H   0  0  0  0  0  0  0  0  0  0  0  0
    0.2442    2.5782   -0.2526 H   0  0  0  0  0  0  0  0  0  0  0  0
    0.8943    2.8914   -2.5552 H   0  0  0  0  0  0  0  0  0  0  0  0
    0.0481    1.6401   -3.1756 H   0  0  0  0  0  0  0  0  0  0  0  0
    2.3145    0.6390   -3.6093 H   0  0  0  0  0  0  0  0  0  0  0  0
    2.3868    1.6838   -5.7479 H   0  0  0  0  0  0  0  0  0  0  0  0
    0.8451    1.3130   -5.3577 H   0  0  0  0  0  0  0  0  0  0  0  0
    1.3771    2.8501   -5.2122 H   0  0  0  0  0  0  0  0  0  0  0  0
    4.0112    2.2714   -3.9654 H   0  0  0  0  0  0  0  0  0  0  0  0
    3.0015    3.4377   -3.4298 H   0  0  0  0  0  0  0  0  0  0  0  0
    3.5381    2.2873   -2.4026 H   0  0  0  0  0  0  0  0  0  0  0  0
   -0.1134    0.2333    2.5799 H   0  0  0  0  0  0  0  0  0  0  0  0
   -0.7801    1.5666    1.9133 H   0  0  0  0  0  0  0  0  0  0  0  0
   -0.4397   -1.9667    1.5862 H   0  0  0  0  0  0  0  0  0  0  0  0
   -1.8211   -3.3569    0.2061 H   0  0  0  0  0  0  0  0  0  0  0  0
   -4.2005   -2.1337   -2.1692 H   0  0  0  0  0  0  0  0  0  0  0  0
   -3.5251    0.0237   -1.4961 H   0  0  0  0  0  0  0  0  0  0  0  0
   -2.1423    1.4089   -0.1127 H   0  0  0  0  0  0  0  0  0  0  0  0
    4.1228    5.1721    2.8956 H   0  0  0  0  0  0  0  0  0  0  0  0
    4.2865    3.9087    1.8740 H   0  0  0  0  0  0  0  0  0  0  0  0
    3.4294    5.2218    1.4180 H   0  0  0  0  0  0  0  0  0  0  0  0
  1  2  2  0  0  0  0
  2  3  1  0  0  0  0
  3  4  1  0  0  0  0
  2  5  1  0  0  0  0
  5  6  1  0  0  0  0
  6  7  1  0  0  0  0
  7  8  2  0  0  0  0
  7  9  1  0  0  0  0
  9 10  1  0  0  0  0
 10 11  1  0  0  0  0
 11 12  2  0  0  0  0
 11 13  1  0  0  0  0
 13 14  1  0  0  0  0
 14 15  1  0  0  0  0
 14 16  1  0  0  0  0
  9 17  1  0  0  0  0
 17 18  1  0  0  0  0
 18 19  1  0  0  0  0
 19 20  2  0  0  0  0
 20 21  1  0  0  0  0
 21 22  1  0  0  0  0
 21 23  2  0  0  0  0
 23 24  1  0  0  0  0
 24 18  2  0  0  0  0
  5 25  1  0  0  0  0
  4 26  1  0  0  0  0
  4 27  1  0  0  0  0
  4 28  1  0  0  0  0
  6 29  1  0  0  0  0
  9 30  1  0  0  0  0
 10 31  1  0  0  0  0
 13 32  1  0  0  0  0
 13 33  1  0  0  0  0
 14 34  1  0  0  0  0
 15 35  1  0  0  0  0
 15 36  1  0  0  0  0
 15 37  1  0  0  0  0
 16 38  1  0  0  0  0
 16 39  1  0  0  0  0
 16 40  1  0  0  0  0
 17 41  1  0  0  0  0
 17 42  1  0  0  0  0
 19 43  1  0  0  0  0
 20 44  1  0  0  0  0
 22 45  1  0  0  0  0
 23 46  1  0  0  0  0
 24 47  1  0  0  0  0
 25 48  1  0  0  0  0
 25 49  1  0  0  0  0
 25 50  1  0  0  0  0
M  END
>  <result-rank>
78

>  <similarity>
0.930

>  <query-name>
LIG_A_1101_2_02

>  <query-smiles>
BrC#CCNC(=O)[C@@H](NC(=O)C)Cc1ccc(O)cc1

>  <source>
REALspace_2019-12

>  <similarity-descriptor>
1.000;0.904;0.904;0.904;0.984;1.000;1.000;1.000;1.000;0.949;1.000;1.000;0.353

>  <similarity-descriptor-smiles>
c1ccccc1;NC;NC;NC;N;C=O;C;N;C=O;C;C;O;O=C.O.C.C.C.C

>  <reaction-name>
s_22

>  <reagent1-name>
10117792

>  <reagent1-smiles>
[R1*]NN(C(=O)OC)C

>  <reagent2-name>
17057108

>  <reagent2-smiles>
[R1*]C(=O)C(NC(=O)CC(C)C)Cc1ccc(O)cc1

$$$$
s_22____10176574____10954548
          04022015103D 1   1.00000     0.00000     0
            
 36 37  0  0  0  0            999 V2000
   -3.6217    1.0000    3.6195 Br  0  0  0  0  0  0  0  0  0  0  0  0
   -1.6617    1.0000    3.6195 C   0  0  0  0  0  0  0  0  0  0  0  0
   -1.2183   -0.0859    4.2465 F   0  0  0  0  0  0  0  0  0  0  0  0
   -1.2183    2.0859    4.2465 F   0  0  0  0  0  0  0  0  0  0  0  0
   -1.1550    1.0000    2.1865 C   0  0  0  0  0  0  0  0  0  0  0  0
    0.3150    1.0000    2.1865 N   0  0  0  0  0  0  0  0  0  0  0  0
    1.0000    1.0000    1.0000 C   0  0  0  0  0  0  0  0  0  0  0  0
    0.4000    1.0000   -0.0392 O   0  0  0  0  0  0  0  0  0  0  0  0
    2.5200    1.0000    1.0000 C   0  0  0  0  0  0  0  0  0  0  0  0
    3.0267    1.4309   -0.3667 C   0  0  3  0  0  0  0  0  0  0  0  0
    2.6785    2.8923   -0.5985 C   0  0  0  0  0  0  0  0  0  0  0  0
    2.1480    3.2835   -1.8234 C   0  0  0  0  0  0  0  0  0  0  0  0
    1.8272    4.6194   -2.0398 C   0  0  0  0  0  0  0  0  0  0  0  0
    2.0410    5.5484   -1.0264 C   0  0  0  0  0  0  0  0  0  0  0  0
    1.7314    6.8461   -1.2323 O   0  0  0  0  0  0  0  0  0  0  0  0
    2.5717    5.1626    0.2003 C   0  0  0  0  0  0  0  0  0  0  0  0
    2.8902    3.8253    0.4113 C   0  0  0  0  0  0  0  0  0  0  0  0
    4.5357    1.2537   -0.4269 C   0  0  0  0  0  0  0  0  0  0  0  0
    4.9179   -0.1801   -0.2019 C   0  0  0  0  0  0  0  0  0  0  0  0
    5.1165    0.8301    0.8915 C   0  0  0  0  0  0  0  0  0  0  0  0
   -1.4883    0.1835    1.7151 H   0  0  0  0  0  0  0  0  0  0  0  0
   -1.4883    1.8165    1.7151 H   0  0  0  0  0  0  0  0  0  0  0  0
    0.8150    1.0000    3.0525 H   0  0  0  0  0  0  0  0  0  0  0  0
    2.8533    0.0795    1.2041 H   0  0  0  0  0  0  0  0  0  0  0  0
    2.8533    1.6370    1.6951 H   0  0  0  0  0  0  0  0  0  0  0  0
    2.5967    0.8696   -1.0738 H   0  0  0  0  0  0  0  0  0  0  0  0
    1.9979    2.6075   -2.5449 H   0  0  0  0  0  0  0  0  0  0  0  0
    1.4456    4.9100   -2.9173 H   0  0  0  0  0  0  0  0  0  0  0  0
    1.8833    7.5175   -0.5069 H   0  0  0  0  0  0  0  0  0  0  0  0
    2.7222    5.8386    0.9216 H   0  0  0  0  0  0  0  0  0  0  0  0
    3.2714    3.5345    1.2889 H   0  0  0  0  0  0  0  0  0  0  0  0
    5.0773    1.8197   -1.0485 H   0  0  0  0  0  0  0  0  0  0  0  0
    5.7094   -0.5668   -0.6752 H   0  0  0  0  0  0  0  0  0  0  0  0
    4.2079   -0.8789   -0.1141 H   0  0  0  0  0  0  0  0  0  0  0  0
    4.5387    0.8042    1.7073 H   0  0  0  0  0  0  0  0  0  0  0  0
    6.0402    1.1163    1.1462 H   0  0  0  0  0  0  0  0  0  0  0  0
  1  2  1  0  0  0  0
  2  3  1  0  0  0  0
  2  4  1  0  0  0  0
  2  5  1  0  0  0  0
  5  6  1  0  0  0  0
  6  7  1  0  0  0  0
  7  8  2  0  0  0  0
  7  9  1  0  0  0  0
  9 10  1  0  0  0  0
 10 11  1  0  0  0  0
 11 12  1  0  0  0  0
 12 13  2  0  0  0  0
 13 14  1  0  0  0  0
 14 15  1  0  0  0  0
 14 16  2  0  0  0  0
 16 17  1  0  0  0  0
 17 11  2  0  0  0  0
 10 18  1  0  0  0  0
 18 19  1  0  0  0  0
 19 20  1  0  0  0  0
 20 18  1  0  0  0  0
  5 21  1  0  0  0  0
  5 22  1  0  0  0  0
  6 23  1  0  0  0  0
  9 24  1  0  0  0  0
  9 25  1  0  0  0  0
 10 26  1  0  0  0  0
 12 27  1  0  0  0  0
 13 28  1  0  0  0  0
 15 29  1  0  0  0  0
 16 30  1  0  0  0  0
 17 31  1  0  0  0  0
 18 32  1  0  0  0  0
 19 33  1  0  0  0  0
 19 34  1  0  0  0  0
 20 35  1  0  0  0  0
 20 36  1  0  0  0  0
M  END
>  <result-rank>
79

>  <similarity>
0.930

>  <query-name>
LIG_A_1101_2_02

>  <query-smiles>
BrC#CCNC(=O)[C@@H](NC(=O)C)Cc1ccc(O)cc1

>  <source>
REALspace_2019-12

>  <similarity-descriptor>
1.000;0.986;0.986;0.999;1.000;1.000;0.938;0.0;0.0;0.0;0.928;1.000;0.111

>  <similarity-descriptor-smiles>
c1ccccc1;BrC(F)F;BrC(F)F;C;N;C=O;C;;;;C;O;C1CC1

>  <reaction-name>
s_22

>  <reagent1-name>
10176574

>  <reagent1-smiles>
[R1*]NCC(Br)(F)F

>  <reagent2-name>
10954548

>  <reagent2-smiles>
[R1*]C(=O)CC(c1ccc(O)cc1)C2CC2

$$$$
s_22____10176574____12113610
          04022015103D 1   1.00000     0.00000     0
            
 38 39  0  0  0  0            999 V2000
    5.0729    1.0325   -0.6003 Br  0  0  0  0  0  0  0  0  0  0  0  0
    4.5994    0.0047    1.0000 C   0  0  0  0  0  0  0  0  0  0  0  0
    4.9207    0.7021    2.0859 F   0  0  0  0  0  0  0  0  0  0  0  0
    5.2644   -1.1471    1.0000 F   0  0  0  0  0  0  0  0  0  0  0  0
    3.1050   -0.2731    1.0000 C   0  0  0  0  0  0  0  0  0  0  0  0
    2.3700    1.0000    1.0000 N   0  0  0  0  0  0  0  0  0  0  0  0
    1.0000    1.0000    1.0000 C   0  0  0  0  0  0  0  0  0  0  0  0
    0.4000   -0.0392    1.0000 O   0  0  0  0  0  0  0  0  0  0  0  0
    0.2400    2.3164    1.0000 C   0  0  0  0  0  0  0  0  0  0  0  0
   -1.2054    2.0477    1.0000 N   0  0  0  0  0  0  0  0  0  0  0  0
   -1.9153    1.9158    2.2012 C   0  0  0  0  0  0  0  0  0  0  0  0
   -1.3540    2.0117    3.2804 O   0  0  0  0  0  0  0  0  0  0  0  0
   -3.2943    1.6711    2.1856 N   0  0  0  0  0  0  0  0  0  0  0  0
   -4.0105    1.5702    0.9037 C   0  0  3  0  0  0  0  0  0  0  0  0
   -5.2231    0.6590    1.0067 C   0  0  0  0  0  0  0  0  0  0  0  0
   -6.1375    0.8430    2.0387 C   0  0  0  0  0  0  0  0  0  0  0  0
   -7.2453    0.0065    2.1298 C   0  0  0  0  0  0  0  0  0  0  0  0
   -7.4329   -1.0038    1.1923 C   0  0  0  0  0  0  0  0  0  0  0  0
   -6.5132   -1.1779    0.1655 C   0  0  0  0  0  0  0  0  0  0  0  0
   -5.4012   -0.3485    0.0639 C   0  0  0  0  0  0  0  0  0  0  0  0
   -3.1079    1.0190   -0.1886 C   0  0  0  0  0  0  0  0  0  0  0  0
   -1.8888    1.9208   -0.2956 C   0  0  0  0  0  0  0  0  0  0  0  0
    2.8634   -0.7974    0.1835 H   0  0  0  0  0  0  0  0  0  0  0  0
    2.8634   -0.7974    1.8165 H   0  0  0  0  0  0  0  0  0  0  0  0
    2.8700    1.8660    1.0000 H   0  0  0  0  0  0  0  0  0  0  0  0
    0.4816    2.8407    1.8165 H   0  0  0  0  0  0  0  0  0  0  0  0
    0.4816    2.8407    0.1835 H   0  0  0  0  0  0  0  0  0  0  0  0
   -3.7926    1.5648    3.0461 H   0  0  0  0  0  0  0  0  0  0  0  0
   -4.3175    2.4833    0.6353 H   0  0  0  0  0  0  0  0  0  0  0  0
   -5.9996    1.5711    2.7101 H   0  0  0  0  0  0  0  0  0  0  0  0
   -7.9068    0.1316    2.8692 H   0  0  0  0  0  0  0  0  0  0  0  0
   -8.2296   -1.6047    1.2574 H   0  0  0  0  0  0  0  0  0  0  0  0
   -6.6520   -1.9056   -0.5062 H   0  0  0  0  0  0  0  0  0  0  0  0
   -4.7398   -0.4745   -0.6755 H   0  0  0  0  0  0  0  0  0  0  0  0
   -3.5986    1.0079   -1.0599 H   0  0  0  0  0  0  0  0  0  0  0  0
   -2.8223    0.0895    0.0449 H   0  0  0  0  0  0  0  0  0  0  0  0
   -1.2533    1.5323   -0.9628 H   0  0  0  0  0  0  0  0  0  0  0  0
   -2.1796    2.8275   -0.6011 H   0  0  0  0  0  0  0  0  0  0  0  0
  1  2  1  0  0  0  0
  2  3  1  0  0  0  0
  2  4  1  0  0  0  0
  2  5  1  0  0  0  0
  5  6  1  0  0  0  0
  6  7  1  0  0  0  0
  7  8  2  0  0  0  0
  7  9  1  0  0  0  0
  9 10  1  0  0  0  0
 10 11  1  0  0  0  0
 11 12  2  0  0  0  0
 11 13  1  0  0  0  0
 13 14  1  0  0  0  0
 14 15  1  0  0  0  0
 15 16  1  0  0  0  0
 16 17  2  0  0  0  0
 17 18  1  0  0  0  0
 18 19  2  0  0  0  0
 19 20  1  0  0  0  0
 20 15  2  0  0  0  0
 14 21  1  0  0  0  0
 21 22  1  0  0  0  0
 22 10  1  0  0  0  0
  5 23  1  0  0  0  0
  5 24  1  0  0  0  0
  6 25  1  0  0  0  0
  9 26  1  0  0  0  0
  9 27  1  0  0  0  0
 13 28  1  0  0  0  0
 14 29  1  0  0  0  0
 16 30  1  0  0  0  0
 17 31  1  0  0  0  0
 18 32  1  0  0  0  0
 19 33  1  0  0  0  0
 20 34  1  0  0  0  0
 21 35  1  0  0  0  0
 21 36  1  0  0  0  0
 22 37  1  0  0  0  0
 22 38  1  0  0  0  0
M  END
>  <result-rank>
80

>  <similarity>
0.929

>  <query-name>
LIG_A_1101_2_02

>  <query-smiles>
BrC#CCNC(=O)[C@@H](NC(=O)C)Cc1ccc(O)cc1

>  <source>
REALspace_2019-12

>  <similarity-descriptor>
0.960;0.986;0.986;0.999;1.000;0.857;0.897;0.897;0.897;0.897;0.897;0.0;0.0

>  <similarity-descriptor-smiles>
c1ccccc1;BrC(F)F;BrC(F)F;C;N;C(=O)C;N1CCCNC1=O;N1CCCNC1=O;N1CCCNC1=O;N1CCCNC1=O;N1CCCNC1=O;;

>  <reaction-name>
s_22

>  <reagent1-name>
10176574

>  <reagent1-smiles>
[R1*]NCC(Br)(F)F

>  <reagent2-name>
12113610

>  <reagent2-smiles>
[R1*]C(=O)CN1C(=O)NC(c2ccccc2)CC1

$$$$
s_2708____6465958____17066264
          04022015103D 1   1.00000     0.00000     0
            
 40 40  0  0  0  0            999 V2000
   -3.6250    1.7199   -1.6462 F   0  0  0  0  0  0  0  0  0  0  0  0
   -3.1817    1.9376   -0.4113 C   0  0  0  0  0  0  0  0  0  0  0  0
   -3.6250    0.9770    0.3947 F   0  0  0  0  0  0  0  0  0  0  0  0
   -3.6250    3.1159    0.0176 F   0  0  0  0  0  0  0  0  0  0  0  0
   -1.6617    1.9376   -0.4113 C   0  0  3  0  0  0  0  0  0  0  0  0
   -1.2183    2.8982   -1.2173 F   0  0  0  0  0  0  0  0  0  0  0  0
   -1.1550    2.1865    1.0000 C   0  0  0  0  0  0  0  0  0  0  0  0
    0.3150    2.1865    1.0000 N   0  0  0  0  0  0  0  0  0  0  0  0
    1.0000    1.0000    1.0000 C   0  0  0  0  0  0  0  0  0  0  0  0
    0.4000   -0.0392    1.0000 O   0  0  0  0  0  0  0  0  0  0  0  0
    2.3700    1.0000    1.0000 N   0  0  0  0  0  0  0  0  0  0  0  0
    3.1050   -0.2731    1.0000 C   0  0  3  0  0  0  0  0  0  0  0  0
    4.2359   -0.2052   -0.0133 C   0  0  0  0  0  0  0  0  0  0  0  0
    3.7113    0.1457   -1.2853 O   0  0  0  0  0  0  0  0  0  0  0  0
    3.3593   -1.0335   -1.9939 C   0  0  0  0  0  0  0  0  0  0  0  0
    3.6795   -0.5264    2.3842 C   0  0  0  0  0  0  0  0  0  0  0  0
    4.5913   -1.7421    2.3398 C   0  0  0  0  0  0  0  0  0  0  0  0
    5.9600   -1.5843    2.5315 C   0  0  0  0  0  0  0  0  0  0  0  0
    6.7908   -2.6992    2.4892 C   0  0  0  0  0  0  0  0  0  0  0  0
    6.2514   -3.9602    2.2578 C   0  0  0  0  0  0  0  0  0  0  0  0
    4.8827   -4.1059    2.0682 C   0  0  0  0  0  0  0  0  0  0  0  0
    4.0414   -2.9988    2.1075 C   0  0  0  0  0  0  0  0  0  0  0  0
   -1.3283    1.0517   -0.7338 H   0  0  0  0  0  0  0  0  0  0  0  0
   -1.4883    3.0724    1.3225 H   0  0  0  0  0  0  0  0  0  0  0  0
   -1.4883    1.4642    1.6060 H   0  0  0  0  0  0  0  0  0  0  0  0
    0.8150    3.0525    1.0000 H   0  0  0  0  0  0  0  0  0  0  0  0
    2.8700    1.8660    1.0000 H   0  0  0  0  0  0  0  0  0  0  0  0
    2.4830   -1.0171    0.7560 H   0  0  0  0  0  0  0  0  0  0  0  0
    4.9007    0.4841    0.2747 H   0  0  0  0  0  0  0  0  0  0  0  0
    4.6846   -1.0969   -0.0723 H   0  0  0  0  0  0  0  0  0  0  0  0
    2.9898   -0.7864   -2.8896 H   0  0  0  0  0  0  0  0  0  0  0  0
    4.1710   -1.6049   -2.1142 H   0  0  0  0  0  0  0  0  0  0  0  0
    2.6691   -1.5396   -1.4767 H   0  0  0  0  0  0  0  0  0  0  0  0
    4.2036    0.2727    2.6790 H   0  0  0  0  0  0  0  0  0  0  0  0
    2.9338   -0.6925    3.0294 H   0  0  0  0  0  0  0  0  0  0  0  0
    6.3438   -0.6761    2.6985 H   0  0  0  0  0  0  0  0  0  0  0  0
    7.7760   -2.5941    2.6251 H   0  0  0  0  0  0  0  0  0  0  0  0
    6.8485   -4.7618    2.2280 H   0  0  0  0  0  0  0  0  0  0  0  0
    4.4992   -5.0144    1.9020 H   0  0  0  0  0  0  0  0  0  0  0  0
    3.0565   -3.1046    1.9709 H   0  0  0  0  0  0  0  0  0  0  0  0
  1  2  1  0  0  0  0
  2  3  1  0  0  0  0
  2  4  1  0  0  0  0
  2  5  1  0  0  0  0
  5  6  1  0  0  0  0
  5  7  1  0  0  0  0
  7  8  1  0  0  0  0
  8  9  1  0  0  0  0
  9 10  2  0  0  0  0
  9 11  1  0  0  0  0
 11 12  1  0  0  0  0
 12 13  1  0  0  0  0
 13 14  1  0  0  0  0
 14 15  1  0  0  0  0
 12 16  1  0  0  0  0
 16 17  1  0  0  0  0
 17 18  1  0  0  0  0
 18 19  2  0  0  0  0
 19 20  1  0  0  0  0
 20 21  2  0  0  0  0
 21 22  1  0  0  0  0
 22 17  2  0  0  0  0
  5 23  1  0  0  0  0
  7 24  1  0  0  0  0
  7 25  1  0  0  0  0
  8 26  1  0  0  0  0
 11 27  1  0  0  0  0
 12 28  1  0  0  0  0
 13 29  1  0  0  0  0
 13 30  1  0  0  0  0
 15 31  1  0  0  0  0
 15 32  1  0  0  0  0
 15 33  1  0  0  0  0
 16 34  1  0  0  0  0
 16 35  1  0  0  0  0
 18 36  1  0  0  0  0
 19 37  1  0  0  0  0
 20 38  1  0  0  0  0
 21 39  1  0  0  0  0
 22 40  1  0  0  0  0
M  END
>  <result-rank>
81

>  <similarity>
0.929

>  <query-name>
LIG_A_1101_2_02

>  <query-smiles>
BrC#CCNC(=O)[C@@H](NC(=O)C)Cc1ccc(O)cc1

>  <source>
REALspace_2019-12

>  <similarity-descriptor>
0.960;0.968;0.968;0.835;0.835;0.995;0.999;0.999;0.770;0.994;1.000;0.0;0.0

>  <similarity-descriptor-smiles>
c1ccccc1;FC(F)F;FC(F)F;C(F)CN;C(F)CN;C=O;NC;NC;CO;C;C;;

>  <reaction-name>
s_2708

>  <reagent1-name>
6465958

>  <reagent1-smiles>
[R1*]C(=O)NC(COC)Cc1ccccc1

>  <reagent2-name>
17066264

>  <reagent2-smiles>
[R1*]NCC(F)C(F)(F)F

$$$$
s_11a____10176570____12422086
          04022015103D 1   1.00000     0.00000     0
            
 31 31  0  0  0  0            999 V2000
   -3.6217    1.0000    3.6195 Br  0  0  0  0  0  0  0  0  0  0  0  0
   -1.6617    1.0000    3.6195 C   0  0  0  0  0  0  0  0  0  0  0  0
   -1.2183   -0.0859    4.2465 F   0  0  0  0  0  0  0  0  0  0  0  0
   -1.2183    2.0859    4.2465 F   0  0  0  0  0  0  0  0  0  0  0  0
   -1.1550    1.0000    2.1865 C   0  0  0  0  0  0  0  0  0  0  0  0
    0.3150    1.0000    2.1865 N   0  0  0  0  0  0  0  0  0  0  0  0
    1.0000    1.0000    1.0000 C   0  0  0  0  0  0  0  0  0  0  0  0
    0.4000    1.0000   -0.0392 O   0  0  0  0  0  0  0  0  0  0  0  0
    2.5200    1.0000    1.0000 C   0  0  0  0  0  0  0  0  0  0  0  0
    3.0267    1.0000   -0.4331 C   0  0  0  0  0  0  0  0  0  0  0  0
    4.5469    1.0000   -0.4331 C   0  0  0  0  0  0  0  0  0  0  0  0
    5.2428   -0.2051   -0.4331 C   0  0  0  0  0  0  0  0  0  0  0  0
    6.6340   -0.2049   -0.4326 C   0  0  0  0  0  0  0  0  0  0  0  0
    7.3296    0.9998   -0.4320 C   0  0  0  0  0  0  0  0  0  0  0  0
    6.6340    2.2047   -0.4329 C   0  0  0  0  0  0  0  0  0  0  0  0
    5.2424    2.2047   -0.4330 C   0  0  0  0  0  0  0  0  0  0  0  0
    4.5177   -1.5413   -0.4334 C   0  0  0  0  0  0  0  0  0  0  0  0
    3.7554   -1.6317   -1.5195 F   0  0  0  0  0  0  0  0  0  0  0  0
    5.4083   -2.5291   -0.4333 F   0  0  0  0  0  0  0  0  0  0  0  0
    3.7549   -1.6320    0.6523 F   0  0  0  0  0  0  0  0  0  0  0  0
   -1.4883    0.1835    1.7151 H   0  0  0  0  0  0  0  0  0  0  0  0
   -1.4883    1.8165    1.7151 H   0  0  0  0  0  0  0  0  0  0  0  0
    0.8150    1.0000    3.0525 H   0  0  0  0  0  0  0  0  0  0  0  0
    2.8533    0.1835    1.4714 H   0  0  0  0  0  0  0  0  0  0  0  0
    2.8533    1.8165    1.4714 H   0  0  0  0  0  0  0  0  0  0  0  0
    2.6933    0.1835   -0.9045 H   0  0  0  0  0  0  0  0  0  0  0  0
    2.6933    1.8165   -0.9045 H   0  0  0  0  0  0  0  0  0  0  0  0
    7.1341   -1.0709   -0.4327 H   0  0  0  0  0  0  0  0  0  0  0  0
    8.3296    0.9998   -0.4310 H   0  0  0  0  0  0  0  0  0  0  0  0
    7.1340    3.0707   -0.4334 H   0  0  0  0  0  0  0  0  0  0  0  0
    4.7424    3.0707   -0.4329 H   0  0  0  0  0  0  0  0  0  0  0  0
  1  2  1  0  0  0  0
  2  3  1  0  0  0  0
  2  4  1  0  0  0  0
  2  5  1  0  0  0  0
  5  6  1  0  0  0  0
  6  7  1  0  0  0  0
  7  8  2  0  0  0  0
  7  9  1  0  0  0  0
  9 10  1  0  0  0  0
 10 11  1  0  0  0  0
 11 12  1  0  0  0  0
 12 13  2  0  0  0  0
 13 14  1  0  0  0  0
 14 15  2  0  0  0  0
 15 16  1  0  0  0  0
 16 11  2  0  0  0  0
 12 17  1  0  0  0  0
 17 18  1  0  0  0  0
 17 19  1  0  0  0  0
 17 20  1  0  0  0  0
  5 21  1  0  0  0  0
  5 22  1  0  0  0  0
  6 23  1  0  0  0  0
  9 24  1  0  0  0  0
  9 25  1  0  0  0  0
 10 26  1  0  0  0  0
 10 27  1  0  0  0  0
 13 28  1  0  0  0  0
 14 29  1  0  0  0  0
 15 30  1  0  0  0  0
 16 31  1  0  0  0  0
M  END
>  <result-rank>
82

>  <similarity>
0.929

>  <query-name>
LIG_A_1101_2_02

>  <query-smiles>
BrC#CCNC(=O)[C@@H](NC(=O)C)Cc1ccc(O)cc1

>  <source>
REALspace_2019-12

>  <similarity-descriptor>
0.944;0.986;0.986;0.999;1.000;1.000;0.972;0.0;0.0;0.0;0.972;0.0;0.0

>  <similarity-descriptor-smiles>
c1ccccc1C(F)(F)F;BrC(F)F;BrC(F)F;C;N;C=O;CC;;;;CC;;

>  <reaction-name>
s_11a

>  <reagent1-name>
10176570

>  <reagent1-smiles>
[R1*]NCC(Br)(F)F

>  <reagent2-name>
12422086

>  <reagent2-smiles>
[R1*]C(=O)CCc1c(cccc1)C(F)(F)F

$$$$
s_22____16639008____1720042
          04022015103D 1   1.00000     0.00000     0
            
 32 32  0  0  0  0            999 V2000
   -0.6793    3.8907   -4.2928 F   0  0  0  0  0  0  0  0  0  0  0  0
   -0.4584    3.5051   -3.0393 C   0  0  0  0  0  0  0  0  0  0  0  0
   -1.3889    2.7017   -2.3882 C   0  0  0  0  0  0  0  0  0  0  0  0
   -1.1514    2.3031   -1.0768 C   0  0  0  0  0  0  0  0  0  0  0  0
    0.0117    2.7118   -0.4329 C   0  0  0  0  0  0  0  0  0  0  0  0
    0.9387    3.5146   -1.0888 C   0  0  0  0  0  0  0  0  0  0  0  0
    0.7069    3.9159   -2.4001 C   0  0  0  0  0  0  0  0  0  0  0  0
    0.2650    2.2731    1.0000 C   0  0  0  0  0  0  0  0  0  0  0  0
    1.0000    1.0000    1.0000 N   0  0  0  0  0  0  0  0  0  0  0  0
    2.3700    1.0000    1.0000 C   0  0  0  0  0  0  0  0  0  0  0  0
    2.9700    2.0392    1.0000 O   0  0  0  0  0  0  0  0  0  0  0  0
    3.1300   -0.3164    1.0000 C   0  0  0  0  0  0  0  0  0  0  0  0
    3.3833   -0.7551   -0.4331 C   0  0  0  0  0  0  0  0  0  0  0  0
    4.0483   -1.9070   -0.4331 F   0  0  0  0  0  0  0  0  0  0  0  0
    2.2212   -0.9142   -1.0600 F   0  0  0  0  0  0  0  0  0  0  0  0
    4.1021    0.1718   -1.0600 F   0  0  0  0  0  0  0  0  0  0  0  0
    0.2650   -0.2731    1.0000 C   0  0  0  0  0  0  0  0  0  0  0  0
    0.0117   -0.7118    2.4331 C   0  0  0  0  0  0  0  0  0  0  0  0
   -0.6983   -1.9416    2.4331 O   0  0  0  0  0  0  0  0  0  0  0  0
   -2.2222    2.4127   -2.8595 H   0  0  0  0  0  0  0  0  0  0  0  0
   -1.8137    1.7257   -0.5993 H   0  0  0  0  0  0  0  0  0  0  0  0
    1.7721    3.8033   -0.6175 H   0  0  0  0  0  0  0  0  0  0  0  0
    1.3697    4.4926   -2.8777 H   0  0  0  0  0  0  0  0  0  0  0  0
    0.8054    2.9700    1.4714 H   0  0  0  0  0  0  0  0  0  0  0  0
   -0.6088    2.1535    1.4714 H   0  0  0  0  0  0  0  0  0  0  0  0
    2.5896   -1.0133    1.4714 H   0  0  0  0  0  0  0  0  0  0  0  0
    4.0038   -0.1968    1.4714 H   0  0  0  0  0  0  0  0  0  0  0  0
    0.8054   -0.9700    0.5286 H   0  0  0  0  0  0  0  0  0  0  0  0
   -0.6088   -0.1535    0.5286 H   0  0  0  0  0  0  0  0  0  0  0  0
    0.8854   -0.8314    2.9045 H   0  0  0  0  0  0  0  0  0  0  0  0
   -0.5288   -0.0149    2.9045 H   0  0  0  0  0  0  0  0  0  0  0  0
   -0.8650   -2.2303    3.3759 H   0  0  0  0  0  0  0  0  0  0  0  0
  1  2  1  0  0  0  0
  2  3  1  0  0  0  0
  3  4  2  0  0  0  0
  4  5  1  0  0  0  0
  5  6  2  0  0  0  0
  6  7  1  0  0  0  0
  7  2  2  0  0  0  0
  5  8  1  0  0  0  0
  8  9  1  0  0  0  0
  9 10  1  0  0  0  0
 10 11  2  0  0  0  0
 10 12  1  0  0  0  0
 12 13  1  0  0  0  0
 13 14  1  0  0  0  0
 13 15  1  0  0  0  0
 13 16  1  0  0  0  0
  9 17  1  0  0  0  0
 17 18  1  0  0  0  0
 18 19  1  0  0  0  0
  3 20  1  0  0  0  0
  4 21  1  0  0  0  0
  6 22  1  0  0  0  0
  7 23  1  0  0  0  0
  8 24  1  0  0  0  0
  8 25  1  0  0  0  0
 12 26  1  0  0  0  0
 12 27  1  0  0  0  0
 17 28  1  0  0  0  0
 17 29  1  0  0  0  0
 18 30  1  0  0  0  0
 18 31  1  0  0  0  0
 19 32  1  0  0  0  0
M  END
>  <result-rank>
83

>  <similarity>
0.928

>  <query-name>
LIG_A_1101_2_02

>  <query-smiles>
BrC#CCNC(=O)[C@@H](NC(=O)C)Cc1ccc(O)cc1

>  <source>
REALspace_2019-12

>  <similarity-descriptor>
0.983;0.968;0.968;0.994;0.852;0.852;0.953;0.828;0.828;0.828;0.953;0.0;0.0

>  <similarity-descriptor-smiles>
Fc1ccccc1;C(F)(F)F;C(F)(F)F;C;C=O;C=O;CNC;CO;CO;CO;CNC;;

>  <reaction-name>
s_22

>  <reagent1-name>
16639008

>  <reagent1-smiles>
[R1*]N(Cc1ccc(F)cc1)CCO

>  <reagent2-name>
1720042

>  <reagent2-smiles>
[R1*]C(=O)CC(F)(F)F

$$$$
s_22____8629128____12624298
          04022015103D 1   1.00000     0.00000     0
            
 39 39  0  0  0  0            999 V2000
   -4.9718    1.6148    2.2810 Br  0  0  0  0  0  0  0  0  0  0  0  0
   -3.5064    1.7632    0.9881 C   0  0  0  0  0  0  0  0  0  0  0  0
   -2.2091    1.9780    1.4403 C   0  0  0  0  0  0  0  0  0  0  0  0
   -1.1798    2.0818    0.5098 C   0  0  0  0  0  0  0  0  0  0  0  0
   -1.4333    1.9740   -0.8534 C   0  0  0  0  0  0  0  0  0  0  0  0
   -2.7384    1.7598   -1.2841 C   0  0  0  0  0  0  0  0  0  0  0  0
   -3.7819    1.6529   -0.3707 C   0  0  0  0  0  0  0  0  0  0  0  0
    0.2400    2.3164    1.0000 C   0  0  3  0  0  0  0  0  0  0  0  0
    0.9144    3.2716    0.1091 N   0  0  0  0  0  0  0  0  0  0  0  0
    1.3899    4.4555    0.6082 C   0  0  0  0  0  0  0  0  0  0  0  0
    1.2557    4.7128    1.7726 O   0  0  0  0  0  0  0  0  0  0  0  0
    2.0873    5.4432   -0.3129 C   0  0  0  0  0  0  0  0  0  0  0  0
    1.0000    1.0000    1.0000 C   0  0  0  0  0  0  0  0  0  0  0  0
    0.4000   -0.0392    1.0000 O   0  0  0  0  0  0  0  0  0  0  0  0
    2.3700    1.0000    1.0000 N   0  0  0  0  0  0  0  0  0  0  0  0
    3.1050   -0.2731    1.0000 C   0  0  0  0  0  0  0  0  0  0  0  0
    4.5994    0.0047    1.0000 C   0  0  0  0  0  0  0  0  0  0  0  0
    5.3594   -1.3117    1.0000 C   0  0  0  0  0  0  0  0  0  0  0  0
    5.9294   -2.2989    1.0000 N   0  0  0  0  0  0  0  0  0  0  0  0
    4.9666    0.8017   -0.2411 C   0  0  0  0  0  0  0  0  0  0  0  0
    4.9666    0.8017    2.2411 C   0  0  0  0  0  0  0  0  0  0  0  0
   -2.0189    2.0566    2.4189 H   0  0  0  0  0  0  0  0  0  0  0  0
   -0.6872    2.0495   -1.5151 H   0  0  0  0  0  0  0  0  0  0  0  0
   -2.9289    1.6816   -2.2627 H   0  0  0  0  0  0  0  0  0  0  0  0
   -4.7180    1.4988   -0.6868 H   0  0  0  0  0  0  0  0  0  0  0  0
    0.2151    2.6869    1.9285 H   0  0  0  0  0  0  0  0  0  0  0  0
    1.0262    3.0571   -0.8612 H   0  0  0  0  0  0  0  0  0  0  0  0
    2.1121    5.0727   -1.2414 H   0  0  0  0  0  0  0  0  0  0  0  0
    1.5873    6.3092   -0.3129 H   0  0  0  0  0  0  0  0  0  0  0  0
    3.0212    5.5975    0.0095 H   0  0  0  0  0  0  0  0  0  0  0  0
    2.8700    1.8660    1.0000 H   0  0  0  0  0  0  0  0  0  0  0  0
    2.8634   -0.7974    0.1835 H   0  0  0  0  0  0  0  0  0  0  0  0
    2.8634   -0.7974    1.8165 H   0  0  0  0  0  0  0  0  0  0  0  0
    4.4666    1.6678   -0.2411 H   0  0  0  0  0  0  0  0  0  0  0  0
    5.9498    0.9845   -0.2411 H   0  0  0  0  0  0  0  0  0  0  0  0
    4.7250    0.2774   -1.0576 H   0  0  0  0  0  0  0  0  0  0  0  0
    4.4666    1.6678    2.2411 H   0  0  0  0  0  0  0  0  0  0  0  0
    4.7250    0.2774    3.0576 H   0  0  0  0  0  0  0  0  0  0  0  0
    5.9498    0.9845    2.2411 H   0  0  0  0  0  0  0  0  0  0  0  0
  1  2  1  0  0  0  0
  2  3  1  0  0  0  0
  3  4  2  0  0  0  0
  4  5  1  0  0  0  0
  5  6  2  0  0  0  0
  6  7  1  0  0  0  0
  7  2  2  0  0  0  0
  4  8  1  0  0  0  0
  8  9  1  0  0  0  0
  9 10  1  0  0  0  0
 10 11  2  0  0  0  0
 10 12  1  0  0  0  0
  8 13  1  0  0  0  0
 13 14  2  0  0  0  0
 13 15  1  0  0  0  0
 15 16  1  0  0  0  0
 16 17  1  0  0  0  0
 17 18  1  0  0  0  0
 18 19  3  0  0  0  0
 17 20  1  0  0  0  0
 17 21  1  0  0  0  0
  3 22  1  0  0  0  0
  5 23  1  0  0  0  0
  6 24  1  0  0  0  0
  7 25  1  0  0  0  0
  8 26  1  0  0  0  0
  9 27  1  0  0  0  0
 12 28  1  0  0  0  0
 12 29  1  0  0  0  0
 12 30  1  0  0  0  0
 15 31  1  0  0  0  0
 16 32  1  0  0  0  0
 16 33  1  0  0  0  0
 20 34  1  0  0  0  0
 20 35  1  0  0  0  0
 20 36  1  0  0  0  0
 21 37  1  0  0  0  0
 21 38  1  0  0  0  0
 21 39  1  0  0  0  0
M  END
>  <result-rank>
84

>  <similarity>
0.927

>  <query-name>
LIG_A_1101_2_02

>  <query-smiles>
BrC#CCNC(=O)[C@@H](NC(=O)C)Cc1ccc(O)cc1

>  <source>
REALspace_2019-12

>  <similarity-descriptor>
0.969;0.870;0.870;0.870;1.000;1.000;1.000;1.000;1.000;1.000;0.969;0.0;0.250

>  <similarity-descriptor-smiles>
Brc1ccccc1;CC;CC;CC;N;C=O;C;N;C=O;C;Brc1ccccc1;;C#N.C.C

>  <reaction-name>
s_22

>  <reagent1-name>
8629128

>  <reagent1-smiles>
[R1*]NCC(C#N)(C)C

>  <reagent2-name>
12624298

>  <reagent2-smiles>
[R1*]C(=O)C(NC(=O)C)c1cc(Br)ccc1

$$$$
s_11a____12527150____16716798
          04022015103D 1   1.00000     0.00000     0
            
 47 47  0  0  0  0            999 V2000
   -0.4264    1.0000    7.4642 Br  0  0  0  0  0  0  0  0  0  0  0  0
    0.8473    1.0000    5.9745 C   0  0  0  0  0  0  0  0  0  0  0  0
    1.6119   -0.0859    6.0449 F   0  0  0  0  0  0  0  0  0  0  0  0
    1.6119    2.0859    6.0449 F   0  0  0  0  0  0  0  0  0  0  0  0
    0.0873    1.0000    4.6581 C   0  0  0  0  0  0  0  0  0  0  0  0
   -0.6774    2.0859    4.5877 F   0  0  0  0  0  0  0  0  0  0  0  0
   -0.6774   -0.0859    4.5877 F   0  0  0  0  0  0  0  0  0  0  0  0
    1.0750    1.0000    3.5028 C   0  0  0  0  0  0  0  0  0  0  0  0
    0.3150    1.0000    2.1865 C   0  0  0  0  0  0  0  0  0  0  0  0
   -0.8850    1.0000    2.1865 O   0  0  0  0  0  0  0  0  0  0  0  0
    1.0000    1.0000    1.0000 N   0  0  0  0  0  0  0  0  0  0  0  0
    2.4700    1.0000    1.0000 C   0  0  3  0  0  0  0  0  0  0  0  0
    2.9767   -0.3842    0.6291 C   0  0  0  0  0  0  0  0  0  0  0  0
    2.3993   -1.0324   -0.1995 O   0  0  0  0  0  0  0  0  0  0  0  0
    4.0924   -0.8919    1.2408 N   0  0  0  0  0  0  0  0  0  0  0  0
    4.8389   -1.9916    0.6127 C   0  0  0  0  0  0  0  0  0  0  0  0
    5.9109   -1.4196   -0.3005 C   0  0  0  0  0  0  0  0  0  0  0  0
    4.5432   -0.3370    2.5252 C   0  0  0  0  0  0  0  0  0  0  0  0
    4.2788   -1.3438    3.6329 C   0  0  0  0  0  0  0  0  0  0  0  0
    2.9767    2.0133   -0.0133 C   0  0  0  0  0  0  0  0  0  0  0  0
    3.1456    3.3647    0.6624 C   0  0  0  0  0  0  0  0  0  0  0  0
    2.0829    4.2620    0.6838 C   0  0  0  0  0  0  0  0  0  0  0  0
    2.2420    5.4978    1.3024 C   0  0  0  0  0  0  0  0  0  0  0  0
    3.4564    5.8279    1.8946 C   0  0  0  0  0  0  0  0  0  0  0  0
    4.5109    4.9235    1.8676 C   0  0  0  0  0  0  0  0  0  0  0  0
    4.3646    3.6849    1.2516 C   0  0  0  0  0  0  0  0  0  0  0  0
    1.6499    1.8165    3.5558 H   0  0  0  0  0  0  0  0  0  0  0  0
    1.6499    0.1835    3.5558 H   0  0  0  0  0  0  0  0  0  0  0  0
    0.5000    1.0000    0.1340 H   0  0  0  0  0  0  0  0  0  0  0  0
    2.8033    1.2440    1.9107 H   0  0  0  0  0  0  0  0  0  0  0  0
    4.2117   -2.5570    0.0771 H   0  0  0  0  0  0  0  0  0  0  0  0
    5.2686   -2.5505    1.3219 H   0  0  0  0  0  0  0  0  0  0  0  0
    6.4187   -2.1676   -0.7278 H   0  0  0  0  0  0  0  0  0  0  0  0
    5.4811   -0.8607   -1.0097 H   0  0  0  0  0  0  0  0  0  0  0  0
    6.5381   -0.8541    0.2351 H   0  0  0  0  0  0  0  0  0  0  0  0
    4.0441    0.5081    2.7168 H   0  0  0  0  0  0  0  0  0  0  0  0
    5.5230   -0.1423    2.4788 H   0  0  0  0  0  0  0  0  0  0  0  0
    4.5854   -0.9663    4.5066 H   0  0  0  0  0  0  0  0  0  0  0  0
    3.2990   -1.5386    3.6794 H   0  0  0  0  0  0  0  0  0  0  0  0
    4.7779   -2.1889    3.4413 H   0  0  0  0  0  0  0  0  0  0  0  0
    3.8576    1.7098   -0.3764 H   0  0  0  0  0  0  0  0  0  0  0  0
    2.3180    2.0947   -0.7613 H   0  0  0  0  0  0  0  0  0  0  0  0
    1.2110    4.0205    0.2577 H   0  0  0  0  0  0  0  0  0  0  0  0
    1.4832    6.1489    1.3212 H   0  0  0  0  0  0  0  0  0  0  0  0
    3.5707    6.7160    2.3399 H   0  0  0  0  0  0  0  0  0  0  0  0
    5.3823    5.1651    2.2945 H   0  0  0  0  0  0  0  0  0  0  0  0
    5.1240    3.0346    1.2326 H   0  0  0  0  0  0  0  0  0  0  0  0
  1  2  1  0  0  0  0
  2  3  1  0  0  0  0
  2  4  1  0  0  0  0
  2  5  1  0  0  0  0
  5  6  1  0  0  0  0
  5  7  1  0  0  0  0
  5  8  1  0  0  0  0
  8  9  1  0  0  0  0
  9 10  2  0  0  0  0
  9 11  1  0  0  0  0
 11 12  1  0  0  0  0
 12 13  1  0  0  0  0
 13 14  2  0  0  0  0
 13 15  1  0  0  0  0
 15 16  1  0  0  0  0
 16 17  1  0  0  0  0
 15 18  1  0  0  0  0
 18 19  1  0  0  0  0
 12 20  1  0  0  0  0
 20 21  1  0  0  0  0
 21 22  1  0  0  0  0
 22 23  2  0  0  0  0
 23 24  1  0  0  0  0
 24 25  2  0  0  0  0
 25 26  1  0  0  0  0
 26 21  2  0  0  0  0
  8 27  1  0  0  0  0
  8 28  1  0  0  0  0
 11 29  1  0  0  0  0
 12 30  1  0  0  0  0
 16 31  1  0  0  0  0
 16 32  1  0  0  0  0
 17 33  1  0  0  0  0
 17 34  1  0  0  0  0
 17 35  1  0  0  0  0
 18 36  1  0  0  0  0
 18 37  1  0  0  0  0
 19 38  1  0  0  0  0
 19 39  1  0  0  0  0
 19 40  1  0  0  0  0
 20 41  1  0  0  0  0
 20 42  1  0  0  0  0
 22 43  1  0  0  0  0
 23 44  1  0  0  0  0
 24 45  1  0  0  0  0
 25 46  1  0  0  0  0
 26 47  1  0  0  0  0
M  END
>  <result-rank>
85

>  <similarity>
0.927

>  <query-name>
LIG_A_1101_2_02

>  <query-smiles>
BrC#CCNC(=O)[C@@H](NC(=O)C)Cc1ccc(O)cc1

>  <source>
REALspace_2019-12

>  <similarity-descriptor>
0.960;0.945;0.945;0.945;0.852;0.852;1.000;1.000;1.000;0.981;1.000;0.0;0.214

>  <similarity-descriptor-smiles>
c1ccccc1;BrC(F)F;C(F)(F)C;C(F)(F)C;C=O;C=O;NC;NC;C=O;NC;C;;C.C.C

>  <reaction-name>
s_11a

>  <reagent1-name>
12527150

>  <reagent1-smiles>
[R1*]NC(C(=O)N(CC)CC)Cc1ccccc1

>  <reagent2-name>
16716798

>  <reagent2-smiles>
[R1*]C(=O)CC(F)(F)C(Br)(F)F

$$$$
s_487a____4147468____1735730
          04022015103D 1   1.00000     0.00000     0
            
 37 37  0  0  0  0            999 V2000
    0.6676   -3.1223    1.8648 Cl  0  0  0  0  0  0  0  0  0  0  0  0
    2.2253   -3.6279    1.1673 C   0  0  0  0  0  0  0  0  0  0  0  0
    2.9768   -2.7441    0.4000 C   0  0  0  0  0  0  0  0  0  0  0  0
    4.1925   -3.1519   -0.1389 C   0  0  0  0  0  0  0  0  0  0  0  0
    4.6524   -4.4440    0.0919 C   0  0  0  0  0  0  0  0  0  0  0  0
    3.8968   -5.3236    0.8593 C   0  0  0  0  0  0  0  0  0  0  0  0
    2.6801   -4.9217    1.4009 C   0  0  0  0  0  0  0  0  0  0  0  0
    2.4700   -1.3325    0.1511 C   0  0  0  0  0  0  0  0  0  0  0  0
    2.9767   -0.4113    1.2488 C   0  0  3  0  0  0  0  0  0  0  0  0
    4.4967   -0.4113    1.2488 C   0  0  0  0  0  0  0  0  0  0  0  0
    5.0967   -0.7667    2.2254 O   0  0  0  0  0  0  0  0  0  0  0  0
    5.1817   -0.0055    0.1339 N   0  0  0  0  0  0  0  0  0  0  0  0
    2.4700    1.0000    1.0000 C   0  0  0  0  0  0  0  0  0  0  0  0
    1.0000    1.0000    1.0000 N   0  0  0  0  0  0  0  0  0  0  0  0
    0.3150    1.0000    2.1865 C   0  0  0  0  0  0  0  0  0  0  0  0
    0.9150    1.0000    3.2257 O   0  0  0  0  0  0  0  0  0  0  0  0
   -1.0550    1.0000    2.1865 N   0  0  0  0  0  0  0  0  0  0  0  0
   -1.7900    1.0000    3.4595 C   0  0  0  0  0  0  0  0  0  0  0  0
   -3.2844    1.0000    3.1818 C   0  0  0  0  0  0  0  0  0  0  0  0
   -3.6057    2.0859    2.4843 F   0  0  0  0  0  0  0  0  0  0  0  0
   -3.6057   -0.0859    2.4843 F   0  0  0  0  0  0  0  0  0  0  0  0
   -3.9494    1.0000    4.3336 F   0  0  0  0  0  0  0  0  0  0  0  0
    4.7342   -2.5179   -0.6907 H   0  0  0  0  0  0  0  0  0  0  0  0
    5.5262   -4.7403   -0.2939 H   0  0  0  0  0  0  0  0  0  0  0  0
    4.2304   -6.2520    1.0231 H   0  0  0  0  0  0  0  0  0  0  0  0
    2.1382   -5.5560    1.9522 H   0  0  0  0  0  0  0  0  0  0  0  0
    1.4700   -1.3325    0.1511 H   0  0  0  0  0  0  0  0  0  0  0  0
    2.8033   -1.0100   -0.7349 H   0  0  0  0  0  0  0  0  0  0  0  0
    2.6433   -0.7338    2.1348 H   0  0  0  0  0  0  0  0  0  0  0  0
    4.6817    0.2907   -0.6799 H   0  0  0  0  0  0  0  0  0  0  0  0
    6.1817   -0.0055    0.1339 H   0  0  0  0  0  0  0  0  0  0  0  0
    2.8033    1.6060    1.7222 H   0  0  0  0  0  0  0  0  0  0  0  0
    2.8033    1.3225    0.1140 H   0  0  0  0  0  0  0  0  0  0  0  0
    0.5000    1.0000    0.1340 H   0  0  0  0  0  0  0  0  0  0  0  0
   -1.5550    1.0000    1.3204 H   0  0  0  0  0  0  0  0  0  0  0  0
   -1.5484    1.8165    3.9839 H   0  0  0  0  0  0  0  0  0  0  0  0
   -1.5484    0.1835    3.9839 H   0  0  0  0  0  0  0  0  0  0  0  0
  1  2  1  0  0  0  0
  2  3  1  0  0  0  0
  3  4  2  0  0  0  0
  4  5  1  0  0  0  0
  5  6  2  0  0  0  0
  6  7  1  0  0  0  0
  7  2  2  0  0  0  0
  3  8  1  0  0  0  0
  8  9  1  0  0  0  0
  9 10  1  0  0  0  0
 10 11  2  0  0  0  0
 10 12  1  0  0  0  0
  9 13  1  0  0  0  0
 13 14  1  0  0  0  0
 14 15  1  0  0  0  0
 15 16  2  0  0  0  0
 15 17  1  0  0  0  0
 17 18  1  0  0  0  0
 18 19  1  0  0  0  0
 19 20  1  0  0  0  0
 19 21  1  0  0  0  0
 19 22  1  0  0  0  0
  4 23  1  0  0  0  0
  5 24  1  0  0  0  0
  6 25  1  0  0  0  0
  7 26  1  0  0  0  0
  8 27  1  0  0  0  0
  8 28  1  0  0  0  0
  9 29  1  0  0  0  0
 12 30  1  0  0  0  0
 12 31  1  0  0  0  0
 13 32  1  0  0  0  0
 13 33  1  0  0  0  0
 14 34  1  0  0  0  0
 17 35  1  0  0  0  0
 18 36  1  0  0  0  0
 18 37  1  0  0  0  0
M  END
>  <result-rank>
86

>  <similarity>
0.927

>  <query-name>
LIG_A_1101_2_02

>  <query-smiles>
BrC#CCNC(=O)[C@@H](NC(=O)C)Cc1ccc(O)cc1

>  <source>
REALspace_2019-12

>  <similarity-descriptor>
0.968;0.968;0.968;0.999;1.000;0.995;0.824;0.824;0.836;0.836;1.000;0.0;0.091

>  <similarity-descriptor-smiles>
Clc1ccccc1;C(F)(F)F;C(F)(F)F;C;N;C=O;CCN;CCN;C=O;C=O;C;;N

>  <reaction-name>
s_487a

>  <reagent1-name>
4147468

>  <reagent1-smiles>
[R1*]NCC(C(=O)N)Cc1c(Cl)cccc1

>  <reagent2-name>
1735730

>  <reagent2-smiles>
[R1*]C(=O)NCC(F)(F)F

$$$$
s_22____6362564____17512240
          04022015103D 1   1.00000     0.00000     0
            
 45 45  0  0  0  0            999 V2000
    5.0367    0.9538   -0.4779 S   0  0  0  0  0  0  0  0  0  0  0  0
    4.5994    0.0047    1.0000 C   0  0  0  0  0  0  0  0  0  0  0  0
    3.1050   -0.2731    1.0000 C   0  0  0  0  0  0  0  0  0  0  0  0
    2.3700    1.0000    1.0000 N   0  0  0  0  0  0  0  0  0  0  0  0
    1.0000    1.0000    1.0000 C   0  0  0  0  0  0  0  0  0  0  0  0
    0.4000   -0.0392    1.0000 O   0  0  0  0  0  0  0  0  0  0  0  0
    0.2400    2.3164    1.0000 C   0  0  3  0  0  0  0  0  0  0  0  0
    0.9144    3.2716    0.1091 N   0  0  0  0  0  0  0  0  0  0  0  0
    1.3899    4.4555    0.6082 C   0  0  0  0  0  0  0  0  0  0  0  0
    1.2557    4.7128    1.7726 O   0  0  0  0  0  0  0  0  0  0  0  0
    2.0873    5.4432   -0.3129 C   0  0  0  0  0  0  0  0  0  0  0  0
   -1.1796    2.0818    0.5099 C   0  0  0  0  0  0  0  0  0  0  0  0
   -1.9397    3.3984    0.5099 C   0  0  0  0  0  0  0  0  0  0  0  0
   -1.9263    4.2018   -0.6256 C   0  0  0  0  0  0  0  0  0  0  0  0
   -2.6225    5.4062   -0.6211 C   0  0  0  0  0  0  0  0  0  0  0  0
   -3.3262    5.7985    0.5127 C   0  0  0  0  0  0  0  0  0  0  0  0
   -3.3329    4.9877    1.6411 C   0  0  0  0  0  0  0  0  0  0  0  0
   -2.6402    3.7815    1.6493 C   0  0  0  0  0  0  0  0  0  0  0  0
    4.9666    0.8017    2.2411 C   0  0  0  0  0  0  0  0  0  0  0  0
    5.3594   -1.3117    1.0000 C   0  0  0  0  0  0  0  0  0  0  0  0
    6.8166    1.1173   -0.1930 C   0  0  0  0  0  0  0  0  0  0  0  0
    2.8634   -0.7974    0.1835 H   0  0  0  0  0  0  0  0  0  0  0  0
    2.8634   -0.7974    1.8165 H   0  0  0  0  0  0  0  0  0  0  0  0
    2.8700    1.8660    1.0000 H   0  0  0  0  0  0  0  0  0  0  0  0
    0.2151    2.6869    1.9285 H   0  0  0  0  0  0  0  0  0  0  0  0
    1.0262    3.0571   -0.8612 H   0  0  0  0  0  0  0  0  0  0  0  0
    2.1121    5.0727   -1.2414 H   0  0  0  0  0  0  0  0  0  0  0  0
    1.5873    6.3092   -0.3129 H   0  0  0  0  0  0  0  0  0  0  0  0
    3.0212    5.5975    0.0095 H   0  0  0  0  0  0  0  0  0  0  0  0
   -1.1547    1.7113   -0.4186 H   0  0  0  0  0  0  0  0  0  0  0  0
   -1.6384    1.4320    1.1159 H   0  0  0  0  0  0  0  0  0  0  0  0
   -1.4200    3.9157   -1.4391 H   0  0  0  0  0  0  0  0  0  0  0  0
   -2.6171    5.9899   -1.4330 H   0  0  0  0  0  0  0  0  0  0  0  0
   -3.8272    6.6640    0.5158 H   0  0  0  0  0  0  0  0  0  0  0  0
   -3.8400    5.2738    2.4541 H   0  0  0  0  0  0  0  0  0  0  0  0
   -2.6456    3.1985    2.4618 H   0  0  0  0  0  0  0  0  0  0  0  0
    4.7250    0.2774    3.0576 H   0  0  0  0  0  0  0  0  0  0  0  0
    5.9498    0.9845    2.2411 H   0  0  0  0  0  0  0  0  0  0  0  0
    4.4666    1.6678    2.2411 H   0  0  0  0  0  0  0  0  0  0  0  0
    5.1178   -1.8360    1.8165 H   0  0  0  0  0  0  0  0  0  0  0  0
    5.1178   -1.8360    0.1835 H   0  0  0  0  0  0  0  0  0  0  0  0
    6.3426   -1.1289    1.0000 H   0  0  0  0  0  0  0  0  0  0  0  0
    7.2282    1.6345   -0.9434 H   0  0  0  0  0  0  0  0  0  0  0  0
    6.9733    1.5991    0.6692 H   0  0  0  0  0  0  0  0  0  0  0  0
    7.2317    0.2087   -0.1473 H   0  0  0  0  0  0  0  0  0  0  0  0
  1  2  1  0  0  0  0
  2  3  1  0  0  0  0
  3  4  1  0  0  0  0
  4  5  1  0  0  0  0
  5  6  2  0  0  0  0
  5  7  1  0  0  0  0
  7  8  1  0  0  0  0
  8  9  1  0  0  0  0
  9 10  2  0  0  0  0
  9 11  1  0  0  0  0
  7 12  1  0  0  0  0
 12 13  1  0  0  0  0
 13 14  1  0  0  0  0
 14 15  2  0  0  0  0
 15 16  1  0  0  0  0
 16 17  2  0  0  0  0
 17 18  1  0  0  0  0
 18 13  2  0  0  0  0
  2 19  1  0  0  0  0
  2 20  1  0  0  0  0
  1 21  1  0  0  0  0
  3 22  1  0  0  0  0
  3 23  1  0  0  0  0
  4 24  1  0  0  0  0
  7 25  1  0  0  0  0
  8 26  1  0  0  0  0
 11 27  1  0  0  0  0
 11 28  1  0  0  0  0
 11 29  1  0  0  0  0
 12 30  1  0  0  0  0
 12 31  1  0  0  0  0
 14 32  1  0  0  0  0
 15 33  1  0  0  0  0
 16 34  1  0  0  0  0
 17 35  1  0  0  0  0
 18 36  1  0  0  0  0
 19 37  1  0  0  0  0
 19 38  1  0  0  0  0
 19 39  1  0  0  0  0
 20 40  1  0  0  0  0
 20 41  1  0  0  0  0
 20 42  1  0  0  0  0
 21 43  1  0  0  0  0
 21 44  1  0  0  0  0
 21 45  1  0  0  0  0
M  END
>  <result-rank>
87

>  <similarity>
0.927

>  <query-name>
LIG_A_1101_2_02

>  <query-smiles>
BrC#CCNC(=O)[C@@H](NC(=O)C)Cc1ccc(O)cc1

>  <source>
REALspace_2019-12

>  <similarity-descriptor>
0.960;0.872;0.872;0.872;1.000;1.000;1.000;1.000;1.000;1.000;1.000;0.0;0.286

>  <similarity-descriptor-smiles>
c1ccccc1;CC;CC;CC;N;C=O;C;N;C=O;C;C;;S.C.C.C

>  <reaction-name>
s_22

>  <reagent1-name>
6362564

>  <reagent1-smiles>
[R1*]NCC(SC)(C)C

>  <reagent2-name>
17512240

>  <reagent2-smiles>
[R1*]C(=O)C(NC(=O)C)Cc1ccccc1

$$$$
s_2430a____13259370____8283090
          04022015103D 1   1.00000     0.00000     0
            
 43 43  0  0  0  0            999 V2000
   -3.6057    2.0859    2.4843 F   0  0  0  0  0  0  0  0  0  0  0  0
   -3.2844    1.0000    3.1818 C   0  0  0  0  0  0  0  0  0  0  0  0
   -3.6057   -0.0859    2.4843 F   0  0  0  0  0  0  0  0  0  0  0  0
   -3.9494    1.0000    4.3336 F   0  0  0  0  0  0  0  0  0  0  0  0
   -1.7900    1.0000    3.4595 C   0  0  3  0  0  0  0  0  0  0  0  0
   -1.0550    1.0000    2.1865 N   0  0  0  0  0  0  0  0  0  0  0  0
    0.3150    1.0000    2.1865 C   0  0  0  0  0  0  0  0  0  0  0  0
    0.9150    1.0000    3.2257 O   0  0  0  0  0  0  0  0  0  0  0  0
    1.0000    1.0000    1.0000 N   0  0  0  0  0  0  0  0  0  0  0  0
    2.4700    1.0000    1.0000 C   0  0  0  0  0  0  0  0  0  0  0  0
    2.9767    1.0000   -0.4331 C   0  0  0  0  0  0  0  0  0  0  0  0
    4.4970    1.0000   -0.4331 C   0  0  0  0  0  0  0  0  0  0  0  0
    5.1809   -0.2117   -0.4331 C   0  0  0  0  0  0  0  0  0  0  0  0
    6.5716   -0.2177   -0.4344 C   0  0  0  0  0  0  0  0  0  0  0  0
    7.2613    0.9904   -0.4368 C   0  0  0  0  0  0  0  0  0  0  0  0
    6.5787    2.2020   -0.4358 C   0  0  0  0  0  0  0  0  0  0  0  0
    5.1877    2.2080   -0.4330 C   0  0  0  0  0  0  0  0  0  0  0  0
    8.7814    0.9901   -0.4393 C   0  0  0  0  0  0  0  0  0  0  0  0
    9.2526    0.9886   -1.7789 O   0  0  0  0  0  0  0  0  0  0  0  0
   -1.4228   -0.2411    4.2566 C   0  0  0  0  0  0  0  0  0  0  0  0
   -2.1828   -0.2411    5.5729 C   0  0  0  0  0  0  0  0  0  0  0  0
   -1.4228    2.2411    4.2566 C   0  0  0  0  0  0  0  0  0  0  0  0
   -1.5550    1.0000    1.3204 H   0  0  0  0  0  0  0  0  0  0  0  0
    0.5000    1.0000    0.1340 H   0  0  0  0  0  0  0  0  0  0  0  0
    2.8033    0.1835    1.4714 H   0  0  0  0  0  0  0  0  0  0  0  0
    2.8033    1.8165    1.4714 H   0  0  0  0  0  0  0  0  0  0  0  0
    2.6433    0.1835   -0.9045 H   0  0  0  0  0  0  0  0  0  0  0  0
    2.6433    1.8165   -0.9045 H   0  0  0  0  0  0  0  0  0  0  0  0
    4.6748   -1.0741   -0.4321 H   0  0  0  0  0  0  0  0  0  0  0  0
    7.0718   -1.0836   -0.4337 H   0  0  0  0  0  0  0  0  0  0  0  0
    7.0851    3.0643   -0.4371 H   0  0  0  0  0  0  0  0  0  0  0  0
    4.6878    3.0740   -0.4310 H   0  0  0  0  0  0  0  0  0  0  0  0
    9.1157    1.8070    0.0307 H   0  0  0  0  0  0  0  0  0  0  0  0
    9.1153    0.1740    0.0324 H   0  0  0  0  0  0  0  0  0  0  0  0
   10.2525    0.9884   -1.7805 H   0  0  0  0  0  0  0  0  0  0  0  0
   -0.4396   -0.2411    4.4393 H   0  0  0  0  0  0  0  0  0  0  0  0
   -1.6644   -1.0576    3.7322 H   0  0  0  0  0  0  0  0  0  0  0  0
   -1.9412   -1.0576    6.0973 H   0  0  0  0  0  0  0  0  0  0  0  0
   -1.9412    0.5754    6.0973 H   0  0  0  0  0  0  0  0  0  0  0  0
   -3.1660   -0.2411    5.3902 H   0  0  0  0  0  0  0  0  0  0  0  0
   -1.9228    2.2411    5.1226 H   0  0  0  0  0  0  0  0  0  0  0  0
   -0.4396    2.2411    4.4393 H   0  0  0  0  0  0  0  0  0  0  0  0
   -1.6644    3.0576    3.7322 H   0  0  0  0  0  0  0  0  0  0  0  0
  1  2  1  0  0  0  0
  2  3  1  0  0  0  0
  2  4  1  0  0  0  0
  2  5  1  0  0  0  0
  5  6  1  0  0  0  0
  6  7  1  0  0  0  0
  7  8  2  0  0  0  0
  7  9  1  0  0  0  0
  9 10  1  0  0  0  0
 10 11  1  0  0  0  0
 11 12  1  0  0  0  0
 12 13  1  0  0  0  0
 13 14  2  0  0  0  0
 14 15  1  0  0  0  0
 15 16  2  0  0  0  0
 16 17  1  0  0  0  0
 17 12  2  0  0  0  0
 15 18  1  0  0  0  0
 18 19  1  0  0  0  0
  5 20  1  0  0  0  0
 20 21  1  0  0  0  0
  5 22  1  0  0  0  0
  6 23  1  0  0  0  0
  9 24  1  0  0  0  0
 10 25  1  0  0  0  0
 10 26  1  0  0  0  0
 11 27  1  0  0  0  0
 11 28  1  0  0  0  0
 13 29  1  0  0  0  0
 14 30  1  0  0  0  0
 16 31  1  0  0  0  0
 17 32  1  0  0  0  0
 18 33  1  0  0  0  0
 18 34  1  0  0  0  0
 19 35  1  0  0  0  0
 20 36  1  0  0  0  0
 20 37  1  0  0  0  0
 21 38  1  0  0  0  0
 21 39  1  0  0  0  0
 21 40  1  0  0  0  0
 22 41  1  0  0  0  0
 22 42  1  0  0  0  0
 22 43  1  0  0  0  0
M  END
>  <result-rank>
88

>  <similarity>
0.927

>  <query-name>
LIG_A_1101_2_02

>  <query-smiles>
BrC#CCNC(=O)[C@@H](NC(=O)C)Cc1ccc(O)cc1

>  <source>
REALspace_2019-12

>  <similarity-descriptor>
0.998;0.990;0.988;0.988;1.000;0.995;0.952;0.952;0.0;0.0;1.000;0.674;0.154

>  <similarity-descriptor-smiles>
c1ccccc1;FC(F)F;CC;CC;N;C=O;NC;NC;;;C;CO;C.C

>  <reaction-name>
s_2430a

>  <reagent1-name>
13259370

>  <reagent1-smiles>
[R1*]C(=O)NC(C(F)(F)F)(CC)C

>  <reagent2-name>
8283090

>  <reagent2-smiles>
[R1*]NCCc1ccc(cc1)CO

$$$$
s_269862____8350638____10953884
          04022015103D 1   1.00000     0.00000     0
            
 44 44  0  0  0  0            999 V2000
   -1.8414   -0.6528   -0.8023 F   0  0  0  0  0  0  0  0  0  0  0  0
   -1.2916   -1.5082    0.0556 C   0  0  0  0  0  0  0  0  0  0  0  0
    0.0932   -1.6042    0.1517 C   0  0  0  0  0  0  0  0  0  0  0  0
    0.6777   -2.4961    1.0450 C   0  0  0  0  0  0  0  0  0  0  0  0
   -0.1357   -3.2943    1.8426 C   0  0  0  0  0  0  0  0  0  0  0  0
   -1.5200   -3.1952    1.7432 C   0  0  0  0  0  0  0  0  0  0  0  0
   -2.1079   -2.3040    0.8516 C   0  0  0  0  0  0  0  0  0  0  0  0
    0.9711   -0.7263   -0.7263 C   0  0  3  0  0  0  0  0  0  0  0  0
    1.8198   -1.5750   -1.5750 N   0  0  0  0  0  0  0  0  0  0  0  0
    1.7310   -1.4861   -2.9392 C   0  0  0  0  0  0  0  0  0  0  0  0
    0.9603   -0.7154   -3.4413 O   0  0  0  0  0  0  0  0  0  0  0  0
    2.6085   -2.3637   -3.8168 C   0  0  0  0  0  0  0  0  0  0  0  0
    1.8487    0.1513    0.1513 C   0  0  3  0  0  0  0  0  0  0  0  0
    1.0000    1.0000    1.0000 N   0  3  0  0  0  0  0  0  0  0  0  0
    1.8487    1.8487    1.8487 C   0  0  0  0  0  0  0  0  0  0  0  0
    0.9711    2.7263    2.7263 C   0  0  0  0  0  0  0  0  0  0  0  0
   -0.2238    2.6484    2.6484 O   0  0  0  0  0  0  0  0  0  0  0  0
    1.5444    3.6061    3.6061 N   0  0  0  0  0  0  0  0  0  0  0  0
    0.6957    4.4548    4.4548 C   0  0  0  0  0  0  0  0  0  0  0  0
    0.2000    3.6478    5.6437 C   0  0  0  0  0  0  0  0  0  0  0  0
   -0.5679    4.4157    6.4116 F   0  0  0  0  0  0  0  0  0  0  0  0
   -0.5062    2.6076    5.2100 F   0  0  0  0  0  0  0  0  0  0  0  0
    1.2402    3.2141    6.3498 F   0  0  0  0  0  0  0  0  0  0  0  0
    2.7263    1.0289   -0.7263 C   0  0  0  0  0  0  0  0  0  0  0  0
    0.4226    0.4226    1.5774 H   0  0  0  0  0  0  0  0  0  0  0  0
    0.4226    1.5774    0.4226 H   0  0  0  0  0  0  0  0  0  0  0  0
    1.6732   -2.5627    1.1131 H   0  0  0  0  0  0  0  0  0  0  0  0
    0.2744   -3.9393    2.4873 H   0  0  0  0  0  0  0  0  0  0  0  0
   -2.0993   -3.7715    2.3198 H   0  0  0  0  0  0  0  0  0  0  0  0
   -3.1033   -2.2366    0.7839 H   0  0  0  0  0  0  0  0  0  0  0  0
    0.3938   -0.1489   -1.3036 H   0  0  0  0  0  0  0  0  0  0  0  0
    2.4621   -2.2172   -1.1566 H   0  0  0  0  0  0  0  0  0  0  0  0
    3.1859   -2.9410   -3.2394 H   0  0  0  0  0  0  0  0  0  0  0  0
    2.0312   -2.9410   -4.3941 H   0  0  0  0  0  0  0  0  0  0  0  0
    3.1859   -1.7863   -4.3941 H   0  0  0  0  0  0  0  0  0  0  0  0
    2.4261   -0.4261    0.7286 H   0  0  0  0  0  0  0  0  0  0  0  0
    2.4261    2.4261    1.2714 H   0  0  0  0  0  0  0  0  0  0  0  0
    2.4261    1.2714    2.4261 H   0  0  0  0  0  0  0  0  0  0  0  0
    2.5402    3.6710    3.6710 H   0  0  0  0  0  0  0  0  0  0  0  0
   -0.0865    4.7810    3.9239 H   0  0  0  0  0  0  0  0  0  0  0  0
    1.2266    5.2370    4.7810 H   0  0  0  0  0  0  0  0  0  0  0  0
    3.3036    0.4515   -1.3036 H   0  0  0  0  0  0  0  0  0  0  0  0
    2.1489    1.6062   -1.3036 H   0  0  0  0  0  0  0  0  0  0  0  0
    3.3036    1.6062   -0.1489 H   0  0  0  0  0  0  0  0  0  0  0  0
  1  2  1  0  0  0  0
  2  3  1  0  0  0  0
  3  4  2  0  0  0  0
  4  5  1  0  0  0  0
  5  6  2  0  0  0  0
  6  7  1  0  0  0  0
  7  2  2  0  0  0  0
  3  8  1  0  0  0  0
  8  9  1  0  0  0  0
  9 10  1  0  0  0  0
 10 11  2  0  0  0  0
 10 12  1  0  0  0  0
  8 13  1  0  0  0  0
 13 14  1  0  0  0  0
 14 15  1  0  0  0  0
 15 16  1  0  0  0  0
 16 17  2  0  0  0  0
 16 18  1  0  0  0  0
 18 19  1  0  0  0  0
 19 20  1  0  0  0  0
 20 21  1  0  0  0  0
 20 22  1  0  0  0  0
 20 23  1  0  0  0  0
 13 24  1  0  0  0  0
 14 25  1  0  0  0  0
 14 26  1  0  0  0  0
  4 27  1  0  0  0  0
  5 28  1  0  0  0  0
  6 29  1  0  0  0  0
  7 30  1  0  0  0  0
  8 31  1  0  0  0  0
  9 32  1  0  0  0  0
 12 33  1  0  0  0  0
 12 34  1  0  0  0  0
 12 35  1  0  0  0  0
 13 36  1  0  0  0  0
 15 37  1  0  0  0  0
 15 38  1  0  0  0  0
 18 39  1  0  0  0  0
 19 40  1  0  0  0  0
 19 41  1  0  0  0  0
 24 42  1  0  0  0  0
 24 43  1  0  0  0  0
 24 44  1  0  0  0  0
M  CHG  1  14   1
M  END
>  <result-rank>
89

>  <similarity>
0.927

>  <query-name>
LIG_A_1101_2_02

>  <query-smiles>
BrC#CCNC(=O)[C@@H](NC(=O)C)Cc1ccc(O)cc1

>  <source>
REALspace_2019-12

>  <similarity-descriptor>
0.983;0.968;0.968;0.999;1.000;0.676;0.966;1.000;1.000;1.000;0.966;0.0;0.077

>  <similarity-descriptor-smiles>
Fc1ccccc1;C(F)(F)F;C(F)(F)F;C;N;[NH2+]CC=O;CC;N;C=O;C;CC;;C

>  <reaction-name>
s_269862

>  <reagent1-name>
8350638

>  <reagent1-smiles>
[R1*]NCC(=O)NCC(F)(F)F

>  <reagent2-name>
10953884

>  <reagent2-smiles>
[R1*]C(C(NC(=O)C)c1c(F)cccc1)C

$$$$
s_273458b____11769690____11103208
          04022015103D 1   1.00000     0.00000     0
            
 40 40  0  0  0  0            999 V2000
   -2.9917    2.9030    2.2411 F   0  0  0  0  0  0  0  0  0  0  0  0
   -1.6617    2.9030    2.2411 C   0  0  0  0  0  0  0  0  0  0  0  0
   -1.2183    2.2760    3.3270 F   0  0  0  0  0  0  0  0  0  0  0  0
   -1.2183    4.1569    2.2411 F   0  0  0  0  0  0  0  0  0  0  0  0
   -1.1550    2.1865    1.0000 C   0  0  3  0  0  0  0  0  0  0  0  0
    0.3150    2.1865    1.0000 N   0  0  0  0  0  0  0  0  0  0  0  0
    1.0000    1.0000    1.0000 C   0  0  0  0  0  0  0  0  0  0  0  0
    0.4000   -0.0392    1.0000 O   0  0  0  0  0  0  0  0  0  0  0  0
    2.3700    1.0000    1.0000 N   0  0  0  0  0  0  0  0  0  0  0  0
    3.1050   -0.2731    1.0000 C   0  0  3  0  0  0  0  0  0  0  0  0
    3.9789   -0.3536    2.2411 C   0  0  0  0  0  0  0  0  0  0  0  0
    4.0832   -1.3910    2.8352 O   0  0  0  0  0  0  0  0  0  0  0  0
    4.6474    0.7582    2.6814 N   0  0  0  0  0  0  0  0  0  0  0  0
    3.9789   -0.3536   -0.2411 C   0  0  0  0  0  0  0  0  0  0  0  0
    4.7390   -1.6702   -0.2411 C   0  0  0  0  0  0  0  0  0  0  0  0
    4.1773   -2.7902   -0.8453 C   0  0  0  0  0  0  0  0  0  0  0  0
    4.8758   -3.9931   -0.8423 C   0  0  0  0  0  0  0  0  0  0  0  0
    6.1270   -4.0694   -0.2393 C   0  0  0  0  0  0  0  0  0  0  0  0
    6.6785   -2.9441    0.3607 C   0  0  0  0  0  0  0  0  0  0  0  0
    5.9897   -1.7356    0.3650 C   0  0  0  0  0  0  0  0  0  0  0  0
   -1.6617    2.9030   -0.2411 C   0  0  0  0  0  0  0  0  0  0  0  0
   -1.1717    2.2100   -1.4413 N   0  3  0  0  0  0  0  0  0  0  0  0
   -1.5050    2.6814   -2.2578 H   0  0  0  0  0  0  0  0  0  0  0  0
   -0.1717    2.2100   -1.4413 H   0  0  0  0  0  0  0  0  0  0  0  0
   -1.5050    1.2672   -1.4413 H   0  0  0  0  0  0  0  0  0  0  0  0
   -1.4883    1.2436    1.0000 H   0  0  0  0  0  0  0  0  0  0  0  0
    0.8150    3.0525    1.0000 H   0  0  0  0  0  0  0  0  0  0  0  0
    2.8700    1.8660    1.0000 H   0  0  0  0  0  0  0  0  0  0  0  0
    2.4552   -1.0331    1.0000 H   0  0  0  0  0  0  0  0  0  0  0  0
    4.5605    1.6227    2.1864 H   0  0  0  0  0  0  0  0  0  0  0  0
    5.2223    0.7052    3.4979 H   0  0  0  0  0  0  0  0  0  0  0  0
    3.4040   -0.3006   -1.0576 H   0  0  0  0  0  0  0  0  0  0  0  0
    4.6287    0.4065   -0.2411 H   0  0  0  0  0  0  0  0  0  0  0  0
    3.2780   -2.7310   -1.2785 H   0  0  0  0  0  0  0  0  0  0  0  0
    4.4785   -4.8031   -1.2736 H   0  0  0  0  0  0  0  0  0  0  0  0
    6.6294   -4.9340   -0.2377 H   0  0  0  0  0  0  0  0  0  0  0  0
    7.5782   -3.0035    0.7932 H   0  0  0  0  0  0  0  0  0  0  0  0
    6.3874   -0.9261    0.7970 H   0  0  0  0  0  0  0  0  0  0  0  0
   -2.6617    2.9030   -0.2411 H   0  0  0  0  0  0  0  0  0  0  0  0
   -1.3283    3.8458   -0.2411 H   0  0  0  0  0  0  0  0  0  0  0  0
  1  2  1  0  0  0  0
  2  3  1  0  0  0  0
  2  4  1  0  0  0  0
  2  5  1  0  0  0  0
  5  6  1  0  0  0  0
  6  7  1  0  0  0  0
  7  8  2  0  0  0  0
  7  9  1  0  0  0  0
  9 10  1  0  0  0  0
 10 11  1  0  0  0  0
 11 12  2  0  0  0  0
 11 13  1  0  0  0  0
 10 14  1  0  0  0  0
 14 15  1  0  0  0  0
 15 16  1  0  0  0  0
 16 17  2  0  0  0  0
 17 18  1  0  0  0  0
 18 19  2  0  0  0  0
 19 20  1  0  0  0  0
 20 15  2  0  0  0  0
  5 21  1  0  0  0  0
 21 22  1  0  0  0  0
 22 23  1  0  0  0  0
 22 24  1  0  0  0  0
 22 25  1  0  0  0  0
  5 26  1  0  0  0  0
  6 27  1  0  0  0  0
  9 28  1  0  0  0  0
 10 29  1  0  0  0  0
 13 30  1  0  0  0  0
 13 31  1  0  0  0  0
 14 32  1  0  0  0  0
 14 33  1  0  0  0  0
 16 34  1  0  0  0  0
 17 35  1  0  0  0  0
 18 36  1  0  0  0  0
 19 37  1  0  0  0  0
 20 38  1  0  0  0  0
 21 39  1  0  0  0  0
 21 40  1  0  0  0  0
M  CHG  1  22   1
M  END
>  <result-rank>
90

>  <similarity>
0.927

>  <query-name>
LIG_A_1101_2_02

>  <query-smiles>
BrC#CCNC(=O)[C@@H](NC(=O)C)Cc1ccc(O)cc1

>  <source>
REALspace_2019-12

>  <similarity-descriptor>
0.960;0.968;0.968;0.934;1.000;0.995;1.000;1.000;0.836;0.836;1.000;0.0;0.250

>  <similarity-descriptor-smiles>
c1ccccc1;FC(F)F;FC(F)F;C;N;C=O;NC;NC;C=O;C=O;C;;N.C.[NH3+]

>  <reaction-name>
s_273458b

>  <reagent1-name>
11769690

>  <reagent1-smiles>
[R1*]C(=O)NC(C(F)(F)F)CN

>  <reagent2-name>
11103208

>  <reagent2-smiles>
[R1*]NC(C(=O)N)Cc1ccccc1

$$$$
s_276436a____15413916____17057122
          04022015103D 1   1.00000     0.00000     0
            
 47 47  0  0  0  0            999 V2000
    1.3560    5.2065   -3.0802 F   0  0  0  0  0  0  0  0  0  0  0  0
    1.6119    4.5758   -1.9376 C   0  0  0  0  0  0  0  0  0  0  0  0
    0.8075    5.0396   -0.9854 F   0  0  0  0  0  0  0  0  0  0  0  0
    2.8782    4.7858   -1.5893 F   0  0  0  0  0  0  0  0  0  0  0  0
    1.3766    3.0850   -2.1180 C   0  0  3  0  0  0  0  0  0  0  0  0
    1.6499    2.4116   -0.8981 O   0  0  0  0  0  0  0  0  0  0  0  0
    0.7075    1.7208   -0.3059 C   0  0  0  0  0  0  0  0  0  0  0  0
   -0.3868    1.6571   -0.7943 O   0  0  0  0  0  0  0  0  0  0  0  0
    1.0000    1.0000    1.0000 C   0  0  3  0  0  0  0  0  0  0  0  0
    1.8487    1.8487    1.8487 N   0  0  0  0  0  0  0  0  0  0  0  0
    3.0831    1.4052    2.2442 C   0  0  0  0  0  0  0  0  0  0  0  0
    3.3356    0.2324    2.2193 O   0  0  0  0  0  0  0  0  0  0  0  0
    4.1329    2.3989    2.7145 C   0  0  0  0  0  0  0  0  0  0  0  0
    4.6634    1.9705    4.0729 C   0  0  0  0  0  0  0  0  0  0  0  0
    5.7132    2.9641    4.5432 C   0  0  0  0  0  0  0  0  0  0  0  0
    3.5200    1.9298    5.0736 C   0  0  0  0  0  0  0  0  0  0  0  0
   -0.3059    0.7075    1.7208 C   0  0  0  0  0  0  0  0  0  0  0  0
   -0.0133   -0.0134    3.0267 C   0  0  0  0  0  0  0  0  0  0  0  0
    0.0419   -1.4031    3.0438 C   0  0  0  0  0  0  0  0  0  0  0  0
    0.3100   -2.0670    4.2362 C   0  0  0  0  0  0  0  0  0  0  0  0
    0.5203   -1.3310    5.3981 C   0  0  0  0  0  0  0  0  0  0  0  0
    0.7804   -1.9713    6.5576 O   0  0  0  0  0  0  0  0  0  0  0  0
    0.4658    0.0590    5.3865 C   0  0  0  0  0  0  0  0  0  0  0  0
    0.1978    0.7176    4.1913 C   0  0  0  0  0  0  0  0  0  0  0  0
    2.2960    2.5550   -3.2063 C   0  0  0  0  0  0  0  0  0  0  0  0
    0.4245    2.9271   -2.3799 H   0  0  0  0  0  0  0  0  0  0  0  0
    1.4742    0.1409    0.8075 H   0  0  0  0  0  0  0  0  0  0  0  0
    1.5250    2.7498    2.1374 H   0  0  0  0  0  0  0  0  0  0  0  0
    3.7222    3.3076    2.7884 H   0  0  0  0  0  0  0  0  0  0  0  0
    4.8852    2.4256    2.0561 H   0  0  0  0  0  0  0  0  0  0  0  0
    5.0741    1.0617    3.9989 H   0  0  0  0  0  0  0  0  0  0  0  0
    6.0622    2.6823    5.4369 H   0  0  0  0  0  0  0  0  0  0  0  0
    6.4654    2.9908    3.8849 H   0  0  0  0  0  0  0  0  0  0  0  0
    5.3025    3.8729    4.6172 H   0  0  0  0  0  0  0  0  0  0  0  0
    3.8690    1.6480    5.9673 H   0  0  0  0  0  0  0  0  0  0  0  0
    3.1093    2.8386    5.1476 H   0  0  0  0  0  0  0  0  0  0  0  0
    2.8294    1.2761    4.7642 H   0  0  0  0  0  0  0  0  0  0  0  0
   -0.7801    1.5666    1.9133 H   0  0  0  0  0  0  0  0  0  0  0  0
   -0.8832    0.1301    1.1435 H   0  0  0  0  0  0  0  0  0  0  0  0
   -0.1104   -1.9224    2.2029 H   0  0  0  0  0  0  0  0  0  0  0  0
    0.3514   -3.0659    4.2583 H   0  0  0  0  0  0  0  0  0  0  0  0
    0.9322   -1.4466    7.3953 H   0  0  0  0  0  0  0  0  0  0  0  0
    0.6176    0.5784    6.2275 H   0  0  0  0  0  0  0  0  0  0  0  0
    0.1568    1.7165    4.1690 H   0  0  0  0  0  0  0  0  0  0  0  0
    2.1035    3.0292   -4.0654 H   0  0  0  0  0  0  0  0  0  0  0  0
    3.2481    2.7129   -2.9444 H   0  0  0  0  0  0  0  0  0  0  0  0
    2.1412    1.5742   -3.3250 H   0  0  0  0  0  0  0  0  0  0  0  0
  1  2  1  0  0  0  0
  2  3  1  0  0  0  0
  2  4  1  0  0  0  0
  2  5  1  0  0  0  0
  5  6  1  0  0  0  0
  6  7  1  0  0  0  0
  7  8  2  0  0  0  0
  7  9  1  0  0  0  0
  9 10  1  0  0  0  0
 10 11  1  0  0  0  0
 11 12  2  0  0  0  0
 11 13  1  0  0  0  0
 13 14  1  0  0  0  0
 14 15  1  0  0  0  0
 14 16  1  0  0  0  0
  9 17  1  0  0  0  0
 17 18  1  0  0  0  0
 18 19  1  0  0  0  0
 19 20  2  0  0  0  0
 20 21  1  0  0  0  0
 21 22  1  0  0  0  0
 21 23  2  0  0  0  0
 23 24  1  0  0  0  0
 24 18  2  0  0  0  0
  5 25  1  0  0  0  0
  5 26  1  0  0  0  0
  9 27  1  0  0  0  0
 10 28  1  0  0  0  0
 13 29  1  0  0  0  0
 13 30  1  0  0  0  0
 14 31  1  0  0  0  0
 15 32  1  0  0  0  0
 15 33  1  0  0  0  0
 15 34  1  0  0  0  0
 16 35  1  0  0  0  0
 16 36  1  0  0  0  0
 16 37  1  0  0  0  0
 17 38  1  0  0  0  0
 17 39  1  0  0  0  0
 19 40  1  0  0  0  0
 20 41  1  0  0  0  0
 22 42  1  0  0  0  0
 23 43  1  0  0  0  0
 24 44  1  0  0  0  0
 25 45  1  0  0  0  0
 25 46  1  0  0  0  0
 25 47  1  0  0  0  0
M  END
>  <result-rank>
91

>  <similarity>
0.927

>  <query-name>
LIG_A_1101_2_02

>  <query-smiles>
BrC#CCNC(=O)[C@@H](NC(=O)C)Cc1ccc(O)cc1

>  <source>
REALspace_2019-12

>  <similarity-descriptor>
1.000;0.968;0.968;0.935;0.283;0.998;1.000;1.000;1.000;0.949;1.000;1.000;0.267

>  <similarity-descriptor-smiles>
c1ccccc1;FC(F)F;FC(F)F;C;O;C=O;C;N;C=O;C;C;O;C.C.C.C

>  <reaction-name>
s_276436a

>  <reagent1-name>
15413916

>  <reagent1-smiles>
[R1*]OC(C(F)(F)F)C

>  <reagent2-name>
17057122

>  <reagent2-smiles>
[R1*]C(=O)C(NC(=O)CC(C)C)Cc1ccc(O)cc1

$$$$
s_11a____10176570____13434880
          04022015103D 1   1.00000     0.00000     0
            
 36 37  0  0  0  0            999 V2000
   -1.0083    2.4546   -2.6057 Br  0  0  0  0  0  0  0  0  0  0  0  0
   -1.6617    0.8933   -1.6173 C   0  0  0  0  0  0  0  0  0  0  0  0
   -1.2183   -0.2173   -2.1996 F   0  0  0  0  0  0  0  0  0  0  0  0
   -2.9917    0.8933   -1.6173 F   0  0  0  0  0  0  0  0  0  0  0  0
   -1.1550    0.9517   -0.1855 C   0  0  0  0  0  0  0  0  0  0  0  0
    0.3150    0.9517   -0.1855 N   0  0  0  0  0  0  0  0  0  0  0  0
    1.0000    1.0000    1.0000 C   0  0  0  0  0  0  0  0  0  0  0  0
    0.4000    1.0423    2.0384 O   0  0  0  0  0  0  0  0  0  0  0  0
    2.5204    1.0000    1.0000 C   0  0  3  0  0  0  0  0  0  0  0  0
    3.0402    2.2005    0.2400 C   0  0  0  0  0  0  0  0  0  0  0  0
    4.3396    2.4875    0.8488 N   0  0  0  0  0  0  0  0  0  0  0  0
    4.3711    1.9395    2.1271 C   0  0  0  0  0  0  0  0  0  0  0  0
    5.3123    1.9898    2.9023 O   0  0  0  0  0  0  0  0  0  0  0  0
    3.0392    1.2761    2.3946 C   0  0  0  0  0  0  0  0  0  0  0  0
    5.4436    3.2381    0.2319 C   0  0  0  0  0  0  0  0  0  0  0  0
    6.3540    2.2772   -0.5166 C   0  0  0  0  0  0  0  0  0  0  0  0
    6.1042    1.9938   -1.8557 C   0  0  0  0  0  0  0  0  0  0  0  0
    5.0742    2.5638   -2.4756 F   0  0  0  0  0  0  0  0  0  0  0  0
    6.9274    1.1173   -2.5537 C   0  0  0  0  0  0  0  0  0  0  0  0
    8.0016    0.5295   -1.8940 C   0  0  0  0  0  0  0  0  0  0  0  0
    8.2549    0.8100   -0.5549 C   0  0  0  0  0  0  0  0  0  0  0  0
    7.4288    1.6871    0.1403 C   0  0  0  0  0  0  0  0  0  0  0  0
   -1.4883    1.7867    0.2523 H   0  0  0  0  0  0  0  0  0  0  0  0
   -1.4883    0.1550    0.3188 H   0  0  0  0  0  0  0  0  0  0  0  0
    0.8150    0.9164   -1.0508 H   0  0  0  0  0  0  0  0  0  0  0  0
    2.8881    0.1454    0.6334 H   0  0  0  0  0  0  0  0  0  0  0  0
    3.1449    1.9856   -0.7310 H   0  0  0  0  0  0  0  0  0  0  0  0
    2.4217    2.9793    0.3443 H   0  0  0  0  0  0  0  0  0  0  0  0
    2.4252    1.8877    2.8934 H   0  0  0  0  0  0  0  0  0  0  0  0
    3.1561    0.4275    2.9106 H   0  0  0  0  0  0  0  0  0  0  0  0
    5.9667    3.7069    0.9437 H   0  0  0  0  0  0  0  0  0  0  0  0
    5.0724    3.9118   -0.4072 H   0  0  0  0  0  0  0  0  0  0  0  0
    6.7497    0.9125   -3.5162 H   0  0  0  0  0  0  0  0  0  0  0  0
    8.5990   -0.1022   -2.3880 H   0  0  0  0  0  0  0  0  0  0  0  0
    9.0309    0.3811   -0.0923 H   0  0  0  0  0  0  0  0  0  0  0  0
    7.6059    1.8914    1.1031 H   0  0  0  0  0  0  0  0  0  0  0  0
  1  2  1  0  0  0  0
  2  3  1  0  0  0  0
  2  4  1  0  0  0  0
  2  5  1  0  0  0  0
  5  6  1  0  0  0  0
  6  7  1  0  0  0  0
  7  8  2  0  0  0  0
  7  9  1  0  0  0  0
  9 10  1  0  0  0  0
 10 11  1  0  0  0  0
 11 12  1  0  0  0  0
 12 13  2  0  0  0  0
 12 14  1  0  0  0  0
 14  9  1  0  0  0  0
 11 15  1  0  0  0  0
 15 16  1  0  0  0  0
 16 17  1  0  0  0  0
 17 18  1  0  0  0  0
 17 19  2  0  0  0  0
 19 20  1  0  0  0  0
 20 21  2  0  0  0  0
 21 22  1  0  0  0  0
 22 16  2  0  0  0  0
  5 23  1  0  0  0  0
  5 24  1  0  0  0  0
  6 25  1  0  0  0  0
  9 26  1  0  0  0  0
 10 27  1  0  0  0  0
 10 28  1  0  0  0  0
 14 29  1  0  0  0  0
 14 30  1  0  0  0  0
 15 31  1  0  0  0  0
 15 32  1  0  0  0  0
 19 33  1  0  0  0  0
 20 34  1  0  0  0  0
 21 35  1  0  0  0  0
 22 36  1  0  0  0  0
M  END
>  <result-rank>
92

>  <similarity>
0.926

>  <query-name>
LIG_A_1101_2_02

>  <query-smiles>
BrC#CCNC(=O)[C@@H](NC(=O)C)Cc1ccc(O)cc1

>  <source>
REALspace_2019-12

>  <similarity-descriptor>
0.983;0.986;0.986;0.999;1.000;1.000;0.781;0.781;0.781;0.781;0.993;0.0;0.0

>  <similarity-descriptor-smiles>
c1ccccc1F;BrC(F)F;BrC(F)F;C;N;C=O;C1CC(NC1)=O;C1CC(NC1)=O;C1CC(NC1)=O;C1CC(NC1)=O;C;;

>  <reaction-name>
s_11a

>  <reagent1-name>
10176570

>  <reagent1-smiles>
[R1*]NCC(Br)(F)F

>  <reagent2-name>
13434880

>  <reagent2-smiles>
[R1*]C(=O)C1CN(C(=O)C1)Cc2c(F)cccc2

$$$$
s_22____4549598____17513450
          04022015103D 1   1.00000     0.00000     0
            
 39 40  0  0  0  0            999 V2000
   -2.7802    0.8250    1.7255 S   0  0  0  0  0  0  0  0  0  0  0  0
   -1.5953    2.0458    1.7931 C   0  0  0  0  0  0  0  0  0  0  0  0
   -1.4442    2.3897    3.0470 N   0  0  0  0  0  0  0  0  0  0  0  0
   -2.2456    1.7106    3.9300 C   0  0  0  0  0  0  0  0  0  0  0  0
   -3.0823    0.7736    3.3983 C   0  0  0  0  0  0  0  0  0  0  0  0
   -0.9275    2.5644    0.6727 N   0  0  0  0  0  0  0  0  0  0  0  0
    0.1224    1.8776    0.1224 C   0  0  0  0  0  0  0  0  0  0  0  0
    0.3493    1.9688   -1.0524 O   0  0  0  0  0  0  0  0  0  0  0  0
    1.0000    1.0000    1.0000 C   0  0  3  0  0  0  0  0  0  0  0  0
    1.8487    0.1513    0.1513 N   0  0  0  0  0  0  0  0  0  0  0  0
    1.7598   -1.2129    0.2402 C   0  0  0  0  0  0  0  0  0  0  0  0
    0.9891   -1.7150    1.0109 O   0  0  0  0  0  0  0  0  0  0  0  0
    2.6374   -2.0905   -0.6374 C   0  0  0  0  0  0  0  0  0  0  0  0
    1.8776    1.8776    1.8776 C   0  0  0  0  0  0  0  0  0  0  0  0
    2.8824    1.0100    2.6179 C   0  0  0  0  0  0  0  0  0  0  0  0
    4.1193    0.7484    2.0377 C   0  0  0  0  0  0  0  0  0  0  0  0
    5.0422   -0.0443    2.7118 C   0  0  0  0  0  0  0  0  0  0  0  0
    4.7159   -0.5657    3.9597 C   0  0  0  0  0  0  0  0  0  0  0  0
    5.6084   -1.3358    4.6172 O   0  0  0  0  0  0  0  0  0  0  0  0
    3.4802   -0.3074    4.5442 C   0  0  0  0  0  0  0  0  0  0  0  0
    2.5613    0.4862    3.8660 C   0  0  0  0  0  0  0  0  0  0  0  0
   -1.3548    3.8444    0.0898 C   0  0  0  0  0  0  0  0  0  0  0  0
   -2.2176    1.8931    4.9128 H   0  0  0  0  0  0  0  0  0  0  0  0
   -3.7298    0.1866    3.8844 H   0  0  0  0  0  0  0  0  0  0  0  0
    0.4226    0.4226    1.5774 H   0  0  0  0  0  0  0  0  0  0  0  0
    2.4909    0.5697   -0.4909 H   0  0  0  0  0  0  0  0  0  0  0  0
    3.2147   -1.5131   -1.2147 H   0  0  0  0  0  0  0  0  0  0  0  0
    3.2147   -2.6678   -0.0600 H   0  0  0  0  0  0  0  0  0  0  0  0
    2.0600   -2.6678   -1.2147 H   0  0  0  0  0  0  0  0  0  0  0  0
    2.3646    2.5386    1.3068 H   0  0  0  0  0  0  0  0  0  0  0  0
    1.3068    2.3646    2.5386 H   0  0  0  0  0  0  0  0  0  0  0  0
    4.3438    1.1285    1.1404 H   0  0  0  0  0  0  0  0  0  0  0  0
    5.9338   -0.2380    2.3024 H   0  0  0  0  0  0  0  0  0  0  0  0
    5.3784   -1.7128    5.5144 H   0  0  0  0  0  0  0  0  0  0  0  0
    3.2553   -0.6878    5.4413 H   0  0  0  0  0  0  0  0  0  0  0  0
    1.6698    0.6803    4.2754 H   0  0  0  0  0  0  0  0  0  0  0  0
   -0.7756    4.0629   -0.6956 H   0  0  0  0  0  0  0  0  0  0  0  0
   -2.3070    3.7739   -0.2077 H   0  0  0  0  0  0  0  0  0  0  0  0
   -1.2726    4.5672    0.7759 H   0  0  0  0  0  0  0  0  0  0  0  0
  1  2  1  0  0  0  0
  2  3  2  0  0  0  0
  3  4  1  0  0  0  0
  4  5  2  0  0  0  0
  5  1  1  0  0  0  0
  2  6  1  0  0  0  0
  6  7  1  0  0  0  0
  7  8  2  0  0  0  0
  7  9  1  0  0  0  0
  9 10  1  0  0  0  0
 10 11  1  0  0  0  0
 11 12  2  0  0  0  0
 11 13  1  0  0  0  0
  9 14  1  0  0  0  0
 14 15  1  0  0  0  0
 15 16  1  0  0  0  0
 16 17  2  0  0  0  0
 17 18  1  0  0  0  0
 18 19  1  0  0  0  0
 18 20  2  0  0  0  0
 20 21  1  0  0  0  0
 21 15  2  0  0  0  0
  6 22  1  0  0  0  0
  4 23  1  0  0  0  0
  5 24  1  0  0  0  0
  9 25  1  0  0  0  0
 10 26  1  0  0  0  0
 13 27  1  0  0  0  0
 13 28  1  0  0  0  0
 13 29  1  0  0  0  0
 14 30  1  0  0  0  0
 14 31  1  0  0  0  0
 16 32  1  0  0  0  0
 17 33  1  0  0  0  0
 19 34  1  0  0  0  0
 20 35  1  0  0  0  0
 21 36  1  0  0  0  0
 22 37  1  0  0  0  0
 22 38  1  0  0  0  0
 22 39  1  0  0  0  0
M  END
>  <result-rank>
93

>  <similarity>
0.926

>  <query-name>
LIG_A_1101_2_02

>  <query-smiles>
BrC#CCNC(=O)[C@@H](NC(=O)C)Cc1ccc(O)cc1

>  <source>
REALspace_2019-12

>  <similarity-descriptor>
1.000;0.901;0.901;0.901;0.852;0.852;1.000;1.000;1.000;1.000;1.000;1.000;0.091

>  <similarity-descriptor-smiles>
c1ccccc1;NC;NC;NC;C=O;C=O;C;N;C=O;C;C;O;S1C=CN=C1

>  <reaction-name>
s_22

>  <reagent1-name>
4549598

>  <reagent1-smiles>
[R1*]N(C=1SC=CN1)C

>  <reagent2-name>
17513450

>  <reagent2-smiles>
[R1*]C(=O)C(NC(=O)C)Cc1ccc(O)cc1

$$$$
s_527a____16738066____17513452
          04022015103D 1   1.00000     0.00000     0
            
 40 40  0  0  0  0            999 V2000
   -2.0279    3.7167    0.7025 F   0  0  0  0  0  0  0  0  0  0  0  0
   -1.1082    3.7357   -0.2580 C   0  0  0  0  0  0  0  0  0  0  0  0
   -0.2604    4.7371   -0.0403 F   0  0  0  0  0  0  0  0  0  0  0  0
   -1.7860    3.9295   -1.6047 C   0  0  0  0  0  0  0  0  0  0  0  0
   -2.4510    5.0813   -1.6047 F   0  0  0  0  0  0  0  0  0  0  0  0
   -0.8663    3.9485   -2.5653 F   0  0  0  0  0  0  0  0  0  0  0  0
   -0.3482    2.4194   -0.2580 C   0  0  0  0  0  0  0  0  0  0  0  0
    0.2850    2.2384    1.0000 O   0  0  0  0  0  0  0  0  0  0  0  0
    1.0000    1.0000    1.0000 N   0  0  0  0  0  0  0  0  0  0  0  0
    2.3700    1.0000    1.0000 C   0  0  0  0  0  0  0  0  0  0  0  0
    2.9700    2.0392    1.0000 O   0  0  0  0  0  0  0  0  0  0  0  0
    3.1300   -0.3164    1.0000 C   0  0  3  0  0  0  0  0  0  0  0  0
    4.5752   -0.0477    1.0000 N   0  0  0  0  0  0  0  0  0  0  0  0
    5.3571   -0.5058    2.0275 C   0  0  0  0  0  0  0  0  0  0  0  0
    4.8622   -1.1263    2.9275 O   0  0  0  0  0  0  0  0  0  0  0  0
    6.8515   -0.2281    2.0275 C   0  0  0  0  0  0  0  0  0  0  0  0
    2.7628   -1.1134   -0.2411 C   0  0  0  0  0  0  0  0  0  0  0  0
    3.5228   -2.4298   -0.2411 C   0  0  0  0  0  0  0  0  0  0  0  0
    2.9568   -3.5469    0.3644 C   0  0  0  0  0  0  0  0  0  0  0  0
    3.6482   -4.7537    0.3662 C   0  0  0  0  0  0  0  0  0  0  0  0
    4.8987   -4.8280   -0.2391 C   0  0  0  0  0  0  0  0  0  0  0  0
    5.5734   -5.9972   -0.2393 O   0  0  0  0  0  0  0  0  0  0  0  0
    5.4695   -3.7138   -0.8457 C   0  0  0  0  0  0  0  0  0  0  0  0
    4.7735   -2.5097   -0.8449 C   0  0  0  0  0  0  0  0  0  0  0  0
   -2.4234    3.1765   -1.7684 H   0  0  0  0  0  0  0  0  0  0  0  0
   -0.9856    1.6665   -0.4218 H   0  0  0  0  0  0  0  0  0  0  0  0
    0.3433    2.4337   -0.9803 H   0  0  0  0  0  0  0  0  0  0  0  0
    0.5000    0.1340    1.0000 H   0  0  0  0  0  0  0  0  0  0  0  0
    2.8884   -0.8407    1.8165 H   0  0  0  0  0  0  0  0  0  0  0  0
    4.9877    0.4693    0.2500 H   0  0  0  0  0  0  0  0  0  0  0  0
    7.0931    0.2963    1.2110 H   0  0  0  0  0  0  0  0  0  0  0  0
    7.0931    0.2963    2.8440 H   0  0  0  0  0  0  0  0  0  0  0  0
    7.3515   -1.0941    2.0275 H   0  0  0  0  0  0  0  0  0  0  0  0
    1.7796   -1.2961   -0.2411 H   0  0  0  0  0  0  0  0  0  0  0  0
    3.0044   -0.5890   -1.0576 H   0  0  0  0  0  0  0  0  0  0  0  0
    2.0571   -3.4826    0.7963 H   0  0  0  0  0  0  0  0  0  0  0  0
    3.2494   -5.5620    0.7993 H   0  0  0  0  0  0  0  0  0  0  0  0
    6.4725   -6.0555   -0.6731 H   0  0  0  0  0  0  0  0  0  0  0  0
    6.3694   -3.7778   -1.2771 H   0  0  0  0  0  0  0  0  0  0  0  0
    5.1720   -1.7014   -1.2783 H   0  0  0  0  0  0  0  0  0  0  0  0
  1  2  1  0  0  0  0
  2  3  1  0  0  0  0
  2  4  1  0  0  0  0
  4  5  1  0  0  0  0
  4  6  1  0  0  0  0
  2  7  1  0  0  0  0
  7  8  1  0  0  0  0
  8  9  1  0  0  0  0
  9 10  1  0  0  0  0
 10 11  2  0  0  0  0
 10 12  1  0  0  0  0
 12 13  1  0  0  0  0
 13 14  1  0  0  0  0
 14 15  2  0  0  0  0
 14 16  1  0  0  0  0
 12 17  1  0  0  0  0
 17 18  1  0  0  0  0
 18 19  1  0  0  0  0
 19 20  2  0  0  0  0
 20 21  1  0  0  0  0
 21 22  1  0  0  0  0
 21 23  2  0  0  0  0
 23 24  1  0  0  0  0
 24 18  2  0  0  0  0
  4 25  1  0  0  0  0
  7 26  1  0  0  0  0
  7 27  1  0  0  0  0
  9 28  1  0  0  0  0
 12 29  1  0  0  0  0
 13 30  1  0  0  0  0
 16 31  1  0  0  0  0
 16 32  1  0  0  0  0
 16 33  1  0  0  0  0
 17 34  1  0  0  0  0
 17 35  1  0  0  0  0
 19 36  1  0  0  0  0
 20 37  1  0  0  0  0
 22 38  1  0  0  0  0
 23 39  1  0  0  0  0
 24 40  1  0  0  0  0
M  END
>  <result-rank>
94

>  <similarity>
0.926

>  <query-name>
LIG_A_1101_2_02

>  <query-smiles>
BrC#CCNC(=O)[C@@H](NC(=O)C)Cc1ccc(O)cc1

>  <source>
REALspace_2019-12

>  <similarity-descriptor>
1.000;0.919;0.919;0.659;0.659;1.000;1.000;1.000;1.000;1.000;1.000;1.000;0.077

>  <similarity-descriptor-smiles>
c1ccccc1;FCF;FCF;CON;CON;C=O;C;N;C=O;C;C;O;C(F)F

>  <reaction-name>
s_527a

>  <reagent1-name>
16738066

>  <reagent1-smiles>
[R1*]NOCC(F)(F)C(F)F

>  <reagent2-name>
17513452

>  <reagent2-smiles>
[R1*]C(=O)C(NC(=O)C)Cc1ccc(O)cc1

$$$$
s_11a____14594094____651944
          04022015103D 1   1.00000     0.00000     0
            
 39 39  0  0  0  0            999 V2000
    3.4317   -0.8389   -0.7065 S   0  0  0  0  0  0  0  0  0  0  0  0
    4.3216   -2.3803   -0.3775 C   0  0  0  0  0  0  0  0  0  0  0  0
    4.6535   -2.9552   -1.5300 F   0  0  0  0  0  0  0  0  0  0  0  0
    5.4230   -2.1162    0.3196 F   0  0  0  0  0  0  0  0  0  0  0  0
    3.5421   -3.2021    0.3196 F   0  0  0  0  0  0  0  0  0  0  0  0
    3.1300   -0.3164    1.0000 C   0  0  0  0  0  0  0  0  0  0  0  0
    2.3700    1.0000    1.0000 C   0  0  0  0  0  0  0  0  0  0  0  0
    2.9700    2.0392    1.0000 O   0  0  0  0  0  0  0  0  0  0  0  0
    1.0000    1.0000    1.0000 N   0  0  0  0  0  0  0  0  0  0  0  0
    0.2650    2.2731    1.0000 C   0  0  3  0  0  0  0  0  0  0  0  0
   -0.8659    2.2052   -0.0133 C   0  0  0  0  0  0  0  0  0  0  0  0
   -1.3295    1.1431   -0.3248 O   0  0  0  0  0  0  0  0  0  0  0  0
   -1.3559    3.3566   -0.5711 N   0  0  0  0  0  0  0  0  0  0  0  0
   -2.5847    3.3178   -1.3771 C   0  0  0  0  0  0  0  0  0  0  0  0
   -0.6529    4.6308   -0.3636 C   0  0  0  0  0  0  0  0  0  0  0  0
   -0.3095    2.5264    2.3842 C   0  0  0  0  0  0  0  0  0  0  0  0
    0.6979    3.3031    3.2167 C   0  0  0  0  0  0  0  0  0  0  0  0
    1.6339    2.6164    3.9831 C   0  0  0  0  0  0  0  0  0  0  0  0
    2.5534    3.3310    4.7440 C   0  0  0  0  0  0  0  0  0  0  0  0
    2.5333    4.7217    4.7338 C   0  0  0  0  0  0  0  0  0  0  0  0
    1.5942    5.3970    3.9641 C   0  0  0  0  0  0  0  0  0  0  0  0
    0.6690    4.6940    3.1994 C   0  0  0  0  0  0  0  0  0  0  0  0
    4.0038   -0.1968    1.4714 H   0  0  0  0  0  0  0  0  0  0  0  0
    2.5896   -1.0133    1.4714 H   0  0  0  0  0  0  0  0  0  0  0  0
    0.5000    0.1340    1.0000 H   0  0  0  0  0  0  0  0  0  0  0  0
    0.8870    3.0171    0.7560 H   0  0  0  0  0  0  0  0  0  0  0  0
   -2.7977    4.2383   -1.7046 H   0  0  0  0  0  0  0  0  0  0  0  0
   -2.4515    2.7083   -2.1587 H   0  0  0  0  0  0  0  0  0  0  0  0
   -3.3407    2.9803   -0.8162 H   0  0  0  0  0  0  0  0  0  0  0  0
   -1.1432    5.3628   -0.8366 H   0  0  0  0  0  0  0  0  0  0  0  0
   -0.6133    4.8342    0.6147 H   0  0  0  0  0  0  0  0  0  0  0  0
    0.2759    4.5622   -0.7278 H   0  0  0  0  0  0  0  0  0  0  0  0
   -1.1538    3.0562    2.3029 H   0  0  0  0  0  0  0  0  0  0  0  0
   -0.5060    1.6524    2.8287 H   0  0  0  0  0  0  0  0  0  0  0  0
    1.6457    1.6165    3.9870 H   0  0  0  0  0  0  0  0  0  0  0  0
    3.2289    2.8448    5.2984 H   0  0  0  0  0  0  0  0  0  0  0  0
    3.1947    5.2354    5.2803 H   0  0  0  0  0  0  0  0  0  0  0  0
    1.5832    6.3970    3.9598 H   0  0  0  0  0  0  0  0  0  0  0  0
   -0.0066    5.1808    2.6457 H   0  0  0  0  0  0  0  0  0  0  0  0
  1  2  1  0  0  0  0
  2  3  1  0  0  0  0
  2  4  1  0  0  0  0
  2  5  1  0  0  0  0
  1  6  1  0  0  0  0
  6  7  1  0  0  0  0
  7  8  2  0  0  0  0
  7  9  1  0  0  0  0
  9 10  1  0  0  0  0
 10 11  1  0  0  0  0
 11 12  2  0  0  0  0
 11 13  1  0  0  0  0
 13 14  1  0  0  0  0
 13 15  1  0  0  0  0
 10 16  1  0  0  0  0
 16 17  1  0  0  0  0
 17 18  1  0  0  0  0
 18 19  2  0  0  0  0
 19 20  1  0  0  0  0
 20 21  2  0  0  0  0
 21 22  1  0  0  0  0
 22 17  2  0  0  0  0
  6 23  1  0  0  0  0
  6 24  1  0  0  0  0
  9 25  1  0  0  0  0
 10 26  1  0  0  0  0
 14 27  1  0  0  0  0
 14 28  1  0  0  0  0
 14 29  1  0  0  0  0
 15 30  1  0  0  0  0
 15 31  1  0  0  0  0
 15 32  1  0  0  0  0
 16 33  1  0  0  0  0
 16 34  1  0  0  0  0
 18 35  1  0  0  0  0
 19 36  1  0  0  0  0
 20 37  1  0  0  0  0
 21 38  1  0  0  0  0
 22 39  1  0  0  0  0
M  END
>  <result-rank>
95

>  <similarity>
0.926

>  <query-name>
LIG_A_1101_2_02

>  <query-smiles>
BrC#CCNC(=O)[C@@H](NC(=O)C)Cc1ccc(O)cc1

>  <source>
REALspace_2019-12

>  <similarity-descriptor>
0.960;0.989;0.740;0.740;0.852;0.852;1.000;1.000;1.000;0.977;1.000;0.0;0.083

>  <similarity-descriptor-smiles>
c1ccccc1;C(F)(F)F;SC;SC;C=O;C=O;NC;NC;C=O;NC;C;;C

>  <reaction-name>
s_11a

>  <reagent1-name>
14594094

>  <reagent1-smiles>
[R1*]NC(C(=O)N(C)C)Cc1ccccc1

>  <reagent2-name>
651944

>  <reagent2-smiles>
[R1*]C(=O)CSC(F)(F)F

$$$$
s_273458b____11769690____11096048
          04022015103D 1   1.00000     0.00000     0
            
 50 50  0  0  0  0            999 V2000
   -1.8992    3.3270    3.4696 F   0  0  0  0  0  0  0  0  0  0  0  0
   -2.6639    2.2411    3.5400 C   0  0  0  0  0  0  0  0  0  0  0  0
   -3.5281    2.2411    2.5291 F   0  0  0  0  0  0  0  0  0  0  0  0
   -3.3289    2.2411    4.6918 F   0  0  0  0  0  0  0  0  0  0  0  0
   -1.7900    1.0000    3.4595 C   0  0  3  0  0  0  0  0  0  0  0  0
   -1.0550    1.0000    2.1865 N   0  0  0  0  0  0  0  0  0  0  0  0
    0.3150    1.0000    2.1865 C   0  0  0  0  0  0  0  0  0  0  0  0
    0.9150    1.0000    3.2257 O   0  0  0  0  0  0  0  0  0  0  0  0
    1.0000    1.0000    1.0000 N   0  0  0  0  0  0  0  0  0  0  0  0
    2.4700    1.0000    1.0000 C   0  0  0  0  0  0  0  0  0  0  0  0
    2.9768   -0.4335    1.0000 C   0  0  0  0  0  0  0  0  0  0  0  0
    3.2087   -1.0892   -0.2051 C   0  0  0  0  0  0  0  0  0  0  0  0
    2.9882   -0.4677   -1.3834 O   0  0  0  0  0  0  0  0  0  0  0  0
    3.2303   -1.1524   -2.6036 C   0  0  0  0  0  0  0  0  0  0  0  0
    2.9055   -0.2361   -3.7720 C   0  0  0  0  0  0  0  0  0  0  0  0
    3.6722   -2.4011   -0.2052 C   0  0  0  0  0  0  0  0  0  0  0  0
    3.9045   -3.0568    1.0000 C   0  0  0  0  0  0  0  0  0  0  0  0
    3.6732   -2.4005    2.2048 C   0  0  0  0  0  0  0  0  0  0  0  0
    3.2099   -1.0888    2.2045 C   0  0  0  0  0  0  0  0  0  0  0  0
    0.2650    1.0000   -0.2731 C   0  0  0  0  0  0  0  0  0  0  0  0
    0.0117    2.4331   -0.7118 C   0  0  3  0  0  0  0  0  0  0  0  0
   -0.7558    3.1025    0.2778 O   0  0  0  0  0  0  0  0  0  0  0  0
   -0.7483    2.4331   -2.0282 C   0  0  0  0  0  0  0  0  0  0  0  0
   -2.6639   -0.2411    3.5400 C   0  0  0  0  0  0  0  0  0  0  0  0
   -1.8187   -1.4413    3.4622 N   0  3  0  0  0  0  0  0  0  0  0  0
   -2.3937   -2.2578    3.5151 H   0  0  0  0  0  0  0  0  0  0  0  0
   -1.3187   -1.4413    2.5961 H   0  0  0  0  0  0  0  0  0  0  0  0
   -1.1689   -1.4413    4.2222 H   0  0  0  0  0  0  0  0  0  0  0  0
   -1.1402    1.0000    4.2196 H   0  0  0  0  0  0  0  0  0  0  0  0
   -1.5550    1.0000    1.3204 H   0  0  0  0  0  0  0  0  0  0  0  0
    2.8033    1.4714    1.8165 H   0  0  0  0  0  0  0  0  0  0  0  0
    2.8033    1.4714    0.1835 H   0  0  0  0  0  0  0  0  0  0  0  0
    2.6528   -1.9676   -2.6487 H   0  0  0  0  0  0  0  0  0  0  0  0
    4.1921   -1.4225   -2.6491 H   0  0  0  0  0  0  0  0  0  0  0  0
    3.0760   -0.7183   -4.6313 H   0  0  0  0  0  0  0  0  0  0  0  0
    1.9437    0.0340   -3.7265 H   0  0  0  0  0  0  0  0  0  0  0  0
    3.4831    0.5790   -3.7269 H   0  0  0  0  0  0  0  0  0  0  0  0
    3.8385   -2.8727   -1.0712 H   0  0  0  0  0  0  0  0  0  0  0  0
    4.2376   -3.9997    1.0002 H   0  0  0  0  0  0  0  0  0  0  0  0
    3.8399   -2.8717    3.0709 H   0  0  0  0  0  0  0  0  0  0  0  0
    3.0444   -0.6169    3.0705 H   0  0  0  0  0  0  0  0  0  0  0  0
   -0.6088    0.5286   -0.1535 H   0  0  0  0  0  0  0  0  0  0  0  0
    0.8054    0.5286   -0.9700 H   0  0  0  0  0  0  0  0  0  0  0  0
    0.8854    2.9045   -0.8314 H   0  0  0  0  0  0  0  0  0  0  0  0
   -0.9224    4.0453   -0.0109 H   0  0  0  0  0  0  0  0  0  0  0  0
   -0.2079    1.9617   -2.7251 H   0  0  0  0  0  0  0  0  0  0  0  0
   -1.6221    1.9617   -1.9086 H   0  0  0  0  0  0  0  0  0  0  0  0
   -0.9150    3.3759   -2.3169 H   0  0  0  0  0  0  0  0  0  0  0  0
   -3.1639   -0.2411    4.4061 H   0  0  0  0  0  0  0  0  0  0  0  0
   -3.3137   -0.2411    2.7800 H   0  0  0  0  0  0  0  0  0  0  0  0
  1  2  1  0  0  0  0
  2  3  1  0  0  0  0
  2  4  1  0  0  0  0
  2  5  1  0  0  0  0
  5  6  1  0  0  0  0
  6  7  1  0  0  0  0
  7  8  2  0  0  0  0
  7  9  1  0  0  0  0
  9 10  1  0  0  0  0
 10 11  1  0  0  0  0
 11 12  1  0  0  0  0
 12 13  1  0  0  0  0
 13 14  1  0  0  0  0
 14 15  1  0  0  0  0
 12 16  2  0  0  0  0
 16 17  1  0  0  0  0
 17 18  2  0  0  0  0
 18 19  1  0  0  0  0
 19 11  2  0  0  0  0
  9 20  1  0  0  0  0
 20 21  1  0  0  0  0
 21 22  1  0  0  0  0
 21 23  1  0  0  0  0
  5 24  1  0  0  0  0
 24 25  1  0  0  0  0
 25 26  1  0  0  0  0
 25 27  1  0  0  0  0
 25 28  1  0  0  0  0
  5 29  1  0  0  0  0
  6 30  1  0  0  0  0
 10 31  1  0  0  0  0
 10 32  1  0  0  0  0
 14 33  1  0  0  0  0
 14 34  1  0  0  0  0
 15 35  1  0  0  0  0
 15 36  1  0  0  0  0
 15 37  1  0  0  0  0
 16 38  1  0  0  0  0
 17 39  1  0  0  0  0
 18 40  1  0  0  0  0
 19 41  1  0  0  0  0
 20 42  1  0  0  0  0
 20 43  1  0  0  0  0
 21 44  1  0  0  0  0
 22 45  1  0  0  0  0
 23 46  1  0  0  0  0
 23 47  1  0  0  0  0
 23 48  1  0  0  0  0
 24 49  1  0  0  0  0
 24 50  1  0  0  0  0
M  CHG  1  25   1
M  END
>  <result-rank>
96

>  <similarity>
0.926

>  <query-name>
LIG_A_1101_2_02

>  <query-smiles>
BrC#CCNC(=O)[C@@H](NC(=O)C)Cc1ccc(O)cc1

>  <source>
REALspace_2019-12

>  <similarity-descriptor>
1.000;0.968;0.968;0.934;1.000;0.995;0.953;0.856;0.856;1.000;0.953;0.704;0.250

>  <similarity-descriptor-smiles>
c1ccccc1;FC(F)F;FC(F)F;C;N;C=O;N(C)C;CO;CO;C;N(C)C;O;C.C.C.[NH3+]

>  <reaction-name>
s_273458b

>  <reagent1-name>
11769690

>  <reagent1-smiles>
[R1*]C(=O)NC(C(F)(F)F)CN

>  <reagent2-name>
11096048

>  <reagent2-smiles>
[R1*]N(Cc1c(OCC)cccc1)CC(O)C

$$$$
s_22____10176574____12102936
          04022015103D 1   1.00000     0.00000     0
            
 29 29  0  0  0  0            999 V2000
   -0.8876    4.6692    2.4576 Br  0  0  0  0  0  0  0  0  0  0  0  0
   -1.6584    3.6228    0.9904 C   0  0  0  0  0  0  0  0  0  0  0  0
   -1.2993    4.1588   -0.1727 F   0  0  0  0  0  0  0  0  0  0  0  0
   -2.9846    3.6287    1.0906 F   0  0  0  0  0  0  0  0  0  0  0  0
   -1.1508    2.1922    1.0672 C   0  0  0  0  0  0  0  0  0  0  0  0
    0.3150    2.1857    0.9564 N   0  0  0  0  0  0  0  0  0  0  0  0
    1.0000    1.0000    1.0000 C   0  0  0  0  0  0  0  0  0  0  0  0
    0.4000   -0.0385    1.0382 O   0  0  0  0  0  0  0  0  0  0  0  0
    2.4505    1.0000    1.0000 C   0  0  0  0  0  0  0  0  0  0  0  0
    3.1612    2.1405    0.5368 C   0  0  0  0  0  0  0  0  0  0  0  0
    2.5695    3.1293    0.1348 O   0  0  0  0  0  0  0  0  0  0  0  0
    4.5324    2.1181    0.5453 N   0  0  0  0  0  0  0  0  0  0  0  0
    5.2302    1.0241    0.9894 C   0  0  0  0  0  0  0  0  0  0  0  0
    4.5565   -0.0827    1.4392 C   0  0  0  0  0  0  0  0  0  0  0  0
    5.2373   -1.2160    1.8996 N   0  0  0  0  0  0  0  0  0  0  0  0
    6.3647   -1.0740    2.6648 C   0  0  0  0  0  0  0  0  0  0  0  0
    6.5745   -0.0409    3.2382 O   0  0  0  0  0  0  0  0  0  0  0  0
    7.3499   -2.2249    2.7876 C   0  0  0  0  0  0  0  0  0  0  0  0
    3.1359   -0.0999    1.4464 C   0  0  0  0  0  0  0  0  0  0  0  0
   -1.4208    1.7892    1.9417 H   0  0  0  0  0  0  0  0  0  0  0  0
   -1.5440    1.6583    0.3186 H   0  0  0  0  0  0  0  0  0  0  0  0
    0.8121    3.0467    0.8492 H   0  0  0  0  0  0  0  0  0  0  0  0
    5.0356    2.9188    0.2200 H   0  0  0  0  0  0  0  0  0  0  0  0
    6.2301    1.0333    0.9851 H   0  0  0  0  0  0  0  0  0  0  0  0
    4.9007   -2.1292    1.6698 H   0  0  0  0  0  0  0  0  0  0  0  0
    7.0228   -3.0024    2.2504 H   0  0  0  0  0  0  0  0  0  0  0  0
    8.2442   -1.9362    2.4458 H   0  0  0  0  0  0  0  0  0  0  0  0
    7.4308   -2.4935    3.7475 H   0  0  0  0  0  0  0  0  0  0  0  0
    2.6416   -0.9054    1.7735 H   0  0  0  0  0  0  0  0  0  0  0  0
  1  2  1  0  0  0  0
  2  3  1  0  0  0  0
  2  4  1  0  0  0  0
  2  5  1  0  0  0  0
  5  6  1  0  0  0  0
  6  7  1  0  0  0  0
  7  8  2  0  0  0  0
  7  9  1  0  0  0  0
  9 10  1  0  0  0  0
 10 11  2  0  0  0  0
 10 12  1  0  0  0  0
 12 13  1  0  0  0  0
 13 14  2  0  0  0  0
 14 15  1  0  0  0  0
 15 16  1  0  0  0  0
 16 17  2  0  0  0  0
 16 18  1  0  0  0  0
 14 19  1  0  0  0  0
  9 19  2  0  0  0  0
  5 20  1  0  0  0  0
  5 21  1  0  0  0  0
  6 22  1  0  0  0  0
 12 23  1  0  0  0  0
 13 24  1  0  0  0  0
 15 25  1  0  0  0  0
 18 26  1  0  0  0  0
 18 27  1  0  0  0  0
 18 28  1  0  0  0  0
 19 29  1  0  0  0  0
M  END
>  <result-rank>
97

>  <similarity>
0.925

>  <query-name>
LIG_A_1101_2_02

>  <query-smiles>
BrC#CCNC(=O)[C@@H](NC(=O)C)Cc1ccc(O)cc1

>  <source>
REALspace_2019-12

>  <similarity-descriptor>
0.825;0.986;0.986;0.999;1.000;0.999;0.825;1.000;1.000;1.000;0.825;0.825;0.0

>  <similarity-descriptor-smiles>
C1=CC=CNC1=O;BrC(F)F;BrC(F)F;C;N;C=O;C1=CC=CNC1=O;N;C=O;C;C1=CC=CNC1=O;C1=CC=CNC1=O;

>  <reaction-name>
s_22

>  <reagent1-name>
10176574

>  <reagent1-smiles>
[R1*]NCC(Br)(F)F

>  <reagent2-name>
12102936

>  <reagent2-smiles>
[R1*]C(=O)c1c(O)ncc(NC(=O)C)c1

$$$$
s_22____12206138____651936
          04022015103D 1   1.00000     0.00000     0
            
 39 39  0  0  0  0            999 V2000
    2.6927   -1.2655    2.4779 S   0  0  0  0  0  0  0  0  0  0  0  0
    3.5078   -0.2383    3.7255 C   0  0  0  0  0  0  0  0  0  0  0  0
    2.8589    0.9169    3.8415 F   0  0  0  0  0  0  0  0  0  0  0  0
    3.4991   -0.8710    4.8953 F   0  0  0  0  0  0  0  0  0  0  0  0
    4.7642   -0.0058    3.3565 F   0  0  0  0  0  0  0  0  0  0  0  0
    3.1300   -0.3164    1.0000 C   0  0  3  0  0  0  0  0  0  0  0  0
    2.3700    1.0000    1.0000 C   0  0  0  0  0  0  0  0  0  0  0  0
    2.9700    2.0392    1.0000 O   0  0  0  0  0  0  0  0  0  0  0  0
    1.0000    1.0000    1.0000 N   0  0  0  0  0  0  0  0  0  0  0  0
    0.2650    2.2731    1.0000 C   0  0  3  0  0  0  0  0  0  0  0  0
   -0.6089    2.3536    2.2411 C   0  0  0  0  0  0  0  0  0  0  0  0
   -0.7132    3.3910    2.8352 O   0  0  0  0  0  0  0  0  0  0  0  0
   -1.2481    1.2905    2.6621 O   0  0  0  0  0  0  0  0  0  0  0  0
   -2.0645    1.3657    3.8216 C   0  0  0  0  0  0  0  0  0  0  0  0
   -0.6089    2.3536   -0.2411 C   0  0  0  0  0  0  0  0  0  0  0  0
   -1.3691    3.6703   -0.2411 C   0  0  0  0  0  0  0  0  0  0  0  0
   -0.8130    4.7945   -0.8436 C   0  0  0  0  0  0  0  0  0  0  0  0
    0.4008    4.7337   -1.4322 O   0  0  0  0  0  0  0  0  0  0  0  0
   -1.5086    5.9995   -0.8435 C   0  0  0  0  0  0  0  0  0  0  0  0
   -2.7604    6.0800   -0.2412 C   0  0  0  0  0  0  0  0  0  0  0  0
   -3.3163    4.9555    0.3606 C   0  0  0  0  0  0  0  0  0  0  0  0
   -2.6208    3.7507    0.3600 C   0  0  0  0  0  0  0  0  0  0  0  0
    2.7628   -1.1134   -0.2411 C   0  0  0  0  0  0  0  0  0  0  0  0
    4.1132   -0.1336    1.0000 H   0  0  0  0  0  0  0  0  0  0  0  0
    0.5000    0.1340    1.0000 H   0  0  0  0  0  0  0  0  0  0  0  0
    0.9148    3.0331    1.0000 H   0  0  0  0  0  0  0  0  0  0  0  0
   -2.4744    0.4711    3.9992 H   0  0  0  0  0  0  0  0  0  0  0  0
   -1.5062    1.6381    4.6052 H   0  0  0  0  0  0  0  0  0  0  0  0
   -2.7878    2.0409    3.6767 H   0  0  0  0  0  0  0  0  0  0  0  0
   -0.0340    2.3006   -1.0576 H   0  0  0  0  0  0  0  0  0  0  0  0
   -1.2587    1.5935   -0.2411 H   0  0  0  0  0  0  0  0  0  0  0  0
    0.7895    5.5488   -1.8619 H   0  0  0  0  0  0  0  0  0  0  0  0
   -1.1089    6.8077   -1.2761 H   0  0  0  0  0  0  0  0  0  0  0  0
   -3.2604    6.9460   -0.2409 H   0  0  0  0  0  0  0  0  0  0  0  0
   -4.2159    5.0132    0.7935 H   0  0  0  0  0  0  0  0  0  0  0  0
   -3.0208    2.9423    0.7919 H   0  0  0  0  0  0  0  0  0  0  0  0
    3.0044   -0.5890   -1.0576 H   0  0  0  0  0  0  0  0  0  0  0  0
    3.2628   -1.9794   -0.2411 H   0  0  0  0  0  0  0  0  0  0  0  0
    1.7796   -1.2961   -0.2411 H   0  0  0  0  0  0  0  0  0  0  0  0
  1  2  1  0  0  0  0
  2  3  1  0  0  0  0
  2  4  1  0  0  0  0
  2  5  1  0  0  0  0
  1  6  1  0  0  0  0
  6  7  1  0  0  0  0
  7  8  2  0  0  0  0
  7  9  1  0  0  0  0
  9 10  1  0  0  0  0
 10 11  1  0  0  0  0
 11 12  2  0  0  0  0
 11 13  1  0  0  0  0
 13 14  1  0  0  0  0
 10 15  1  0  0  0  0
 15 16  1  0  0  0  0
 16 17  1  0  0  0  0
 17 18  1  0  0  0  0
 17 19  2  0  0  0  0
 19 20  1  0  0  0  0
 20 21  2  0  0  0  0
 21 22  1  0  0  0  0
 22 16  2  0  0  0  0
  6 23  1  0  0  0  0
  6 24  1  0  0  0  0
  9 25  1  0  0  0  0
 10 26  1  0  0  0  0
 14 27  1  0  0  0  0
 14 28  1  0  0  0  0
 14 29  1  0  0  0  0
 15 30  1  0  0  0  0
 15 31  1  0  0  0  0
 18 32  1  0  0  0  0
 19 33  1  0  0  0  0
 20 34  1  0  0  0  0
 21 35  1  0  0  0  0
 22 36  1  0  0  0  0
 23 37  1  0  0  0  0
 23 38  1  0  0  0  0
 23 39  1  0  0  0  0
M  END
>  <result-rank>
98

>  <similarity>
0.925

>  <query-name>
LIG_A_1101_2_02

>  <query-smiles>
BrC#CCNC(=O)[C@@H](NC(=O)C)Cc1ccc(O)cc1

>  <source>
REALspace_2019-12

>  <similarity-descriptor>
1.000;0.969;0.969;0.523;0.523;1.000;1.000;1.000;0.855;0.994;1.000;1.000;0.077

>  <similarity-descriptor-smiles>
c1ccccc1;C(F)(F)F;C(F)(F)F;SC;SC;C=O;NC;NC;C(=O)O;C;C;O;C

>  <reaction-name>
s_22

>  <reagent1-name>
12206138

>  <reagent1-smiles>
[R1*]NC(C(=O)OC)Cc1c(O)cccc1

>  <reagent2-name>
651936

>  <reagent2-smiles>
[R1*]C(=O)C(SC(F)(F)F)C

$$$$
s_487a____4915466____1735730
          04022015103D 1   1.00000     0.00000     0
            
 34 34  0  0  0  0            999 V2000
   -2.9917    3.6195    1.0000 F   0  0  0  0  0  0  0  0  0  0  0  0
   -1.6617    3.6195    1.0000 C   0  0  0  0  0  0  0  0  0  0  0  0
   -1.2183    4.2465    2.0859 F   0  0  0  0  0  0  0  0  0  0  0  0
   -1.2183    4.2465   -0.0859 F   0  0  0  0  0  0  0  0  0  0  0  0
   -1.1550    2.1865    1.0000 C   0  0  0  0  0  0  0  0  0  0  0  0
    0.3150    2.1865    1.0000 N   0  0  0  0  0  0  0  0  0  0  0  0
    1.0000    1.0000    1.0000 C   0  0  0  0  0  0  0  0  0  0  0  0
    0.4000   -0.0392    1.0000 O   0  0  0  0  0  0  0  0  0  0  0  0
    2.3700    1.0000    1.0000 N   0  0  0  0  0  0  0  0  0  0  0  0
    3.1050   -0.2731    1.0000 C   0  0  0  0  0  0  0  0  0  0  0  0
    3.1428   -0.8363   -0.4113 C   0  0  3  0  0  0  0  0  0  0  0  0
    1.8167   -1.0554   -0.8692 O   0  0  0  0  0  0  0  0  0  0  0  0
    3.8403    0.1516   -1.3326 C   0  0  0  0  0  0  0  0  0  0  0  0
    5.1575    0.5195   -1.0780 C   0  0  0  0  0  0  0  0  0  0  0  0
    5.7917    1.4244   -1.9231 C   0  0  0  0  0  0  0  0  0  0  0  0
    5.1095    1.9531   -3.0138 C   0  0  0  0  0  0  0  0  0  0  0  0
    3.7942    1.5780   -3.2587 C   0  0  0  0  0  0  0  0  0  0  0  0
    3.1488    0.6746   -2.4207 C   0  0  0  0  0  0  0  0  0  0  0  0
    3.9028   -2.1526   -0.4113 C   0  0  0  0  0  0  0  0  0  0  0  0
   -1.4883    1.7151    1.8165 H   0  0  0  0  0  0  0  0  0  0  0  0
   -1.4883    1.7151    0.1835 H   0  0  0  0  0  0  0  0  0  0  0  0
    0.8150    3.0525    1.0000 H   0  0  0  0  0  0  0  0  0  0  0  0
    2.8700    1.8660    1.0000 H   0  0  0  0  0  0  0  0  0  0  0  0
    2.6462   -0.9228    1.6060 H   0  0  0  0  0  0  0  0  0  0  0  0
    4.0389   -0.1188    1.3225 H   0  0  0  0  0  0  0  0  0  0  0  0
    1.3578   -1.7052   -0.2632 H   0  0  0  0  0  0  0  0  0  0  0  0
    5.6448    0.1364   -0.2934 H   0  0  0  0  0  0  0  0  0  0  0  0
    6.7381    1.6947   -1.7464 H   0  0  0  0  0  0  0  0  0  0  0  0
    5.5656    2.6031   -3.6217 H   0  0  0  0  0  0  0  0  0  0  0  0
    3.3075    1.9608   -4.0439 H   0  0  0  0  0  0  0  0  0  0  0  0
    2.2022    0.4051   -2.5977 H   0  0  0  0  0  0  0  0  0  0  0  0
    4.8367   -1.9983   -0.0888 H   0  0  0  0  0  0  0  0  0  0  0  0
    3.4440   -2.8024    0.1947 H   0  0  0  0  0  0  0  0  0  0  0  0
    3.9277   -2.5232   -1.3398 H   0  0  0  0  0  0  0  0  0  0  0  0
  1  2  1  0  0  0  0
  2  3  1  0  0  0  0
  2  4  1  0  0  0  0
  2  5  1  0  0  0  0
  5  6  1  0  0  0  0
  6  7  1  0  0  0  0
  7  8  2  0  0  0  0
  7  9  1  0  0  0  0
  9 10  1  0  0  0  0
 10 11  1  0  0  0  0
 11 12  1  0  0  0  0
 11 13  1  0  0  0  0
 13 14  1  0  0  0  0
 14 15  2  0  0  0  0
 15 16  1  0  0  0  0
 16 17  2  0  0  0  0
 17 18  1  0  0  0  0
 18 13  2  0  0  0  0
 11 19  1  0  0  0  0
  5 20  1  0  0  0  0
  5 21  1  0  0  0  0
  6 22  1  0  0  0  0
  9 23  1  0  0  0  0
 10 24  1  0  0  0  0
 10 25  1  0  0  0  0
 12 26  1  0  0  0  0
 14 27  1  0  0  0  0
 15 28  1  0  0  0  0
 16 29  1  0  0  0  0
 17 30  1  0  0  0  0
 18 31  1  0  0  0  0
 19 32  1  0  0  0  0
 19 33  1  0  0  0  0
 19 34  1  0  0  0  0
M  END
>  <result-rank>
99

>  <similarity>
0.925

>  <query-name>
LIG_A_1101_2_02

>  <query-smiles>
BrC#CCNC(=O)[C@@H](NC(=O)C)Cc1ccc(O)cc1

>  <source>
REALspace_2019-12

>  <similarity-descriptor>
0.960;0.968;0.968;0.999;1.000;0.995;0.952;0.952;0.0;0.0;0.921;0.0;0.100

>  <similarity-descriptor-smiles>
c1ccccc1;FC(F)F;FC(F)F;C;N;C=O;NC;NC;;;CC;;O

>  <reaction-name>
s_487a

>  <reagent1-name>
4915466

>  <reagent1-smiles>
[R1*]NCC(O)(c1ccccc1)C

>  <reagent2-name>
1735730

>  <reagent2-smiles>
[R1*]C(=O)NCC(F)(F)F

$$$$
s_2430a____11944322____11566480
          04022015103D 1   1.00000     0.00000     0
            
 50 50  0  0  0  0            999 V2000
    0.9386    1.8945   -5.8005 F   0  0  0  0  0  0  0  0  0  0  0  0
    0.1295    2.0468   -4.7564 C   0  0  0  0  0  0  0  0  0  0  0  0
   -0.9875    2.8692   -4.8687 C   0  0  0  0  0  0  0  0  0  0  0  0
   -1.2430    3.5066   -6.0317 O   0  0  0  0  0  0  0  0  0  0  0  0
   -2.3829    4.3456   -6.1459 C   0  0  0  0  0  0  0  0  0  0  0  0
   -1.8489    3.0433   -3.7905 C   0  0  0  0  0  0  0  0  0  0  0  0
   -1.5808    2.3844   -2.5951 C   0  0  0  0  0  0  0  0  0  0  0  0
   -0.4625    1.5639   -2.4890 C   0  0  0  0  0  0  0  0  0  0  0  0
    0.4018    1.3859   -3.5636 C   0  0  0  0  0  0  0  0  0  0  0  0
   -0.1701    0.8432   -1.1834 C   0  0  0  0  0  0  0  0  0  0  0  0
    0.7075    1.7208   -0.3059 C   0  0  3  0  0  0  0  0  0  0  0  0
   -0.0133    3.0267   -0.0133 C   0  0  0  0  0  0  0  0  0  0  0  0
    0.4749    4.0699   -0.3499 O   0  0  0  0  0  0  0  0  0  0  0  0
   -1.2204    3.0126    0.6345 N   0  0  0  0  0  0  0  0  0  0  0  0
   -1.9175    4.2755    0.9174 C   0  0  0  0  0  0  0  0  0  0  0  0
    1.0000    1.0000    1.0000 C   0  0  0  0  0  0  0  0  0  0  0  0
    1.8487    1.8487    1.8487 N   0  0  0  0  0  0  0  0  0  0  0  0
    2.2442    1.4052    3.0831 C   0  0  0  0  0  0  0  0  0  0  0  0
    1.8978    0.3240    3.4716 O   0  0  0  0  0  0  0  0  0  0  0  0
    3.0352    2.1962    3.8741 N   0  0  0  0  0  0  0  0  0  0  0  0
    3.4595    1.7204    5.1986 C   0  0  0  0  0  0  0  0  0  0  0  0
    4.3223    2.7796    5.8650 C   0  0  0  0  0  0  0  0  0  0  0  0
    4.7062    2.3491    7.0634 F   0  0  0  0  0  0  0  0  0  0  0  0
    5.3945    3.0149    5.1141 F   0  0  0  0  0  0  0  0  0  0  0  0
    3.6211    3.9016    6.0007 F   0  0  0  0  0  0  0  0  0  0  0  0
    2.2342    1.4514    6.0569 C   0  0  0  0  0  0  0  0  0  0  0  0
    4.2608    0.4381    5.0436 C   0  0  0  0  0  0  0  0  0  0  0  0
   -2.4194    4.7347   -7.0664 H   0  0  0  0  0  0  0  0  0  0  0  0
   -3.2098    3.8092   -5.9777 H   0  0  0  0  0  0  0  0  0  0  0  0
   -2.3220    5.0839   -5.4741 H   0  0  0  0  0  0  0  0  0  0  0  0
   -2.6509    3.6348   -3.8737 H   0  0  0  0  0  0  0  0  0  0  0  0
   -2.1918    2.5007   -1.8121 H   0  0  0  0  0  0  0  0  0  0  0  0
    1.2035    0.7941   -3.4802 H   0  0  0  0  0  0  0  0  0  0  0  0
    0.3041   -0.0159   -1.3759 H   0  0  0  0  0  0  0  0  0  0  0  0
   -1.0292    0.6508   -0.7092 H   0  0  0  0  0  0  0  0  0  0  0  0
    1.5666    1.9133   -0.7801 H   0  0  0  0  0  0  0  0  0  0  0  0
   -1.6272    2.1432    0.9150 H   0  0  0  0  0  0  0  0  0  0  0  0
   -2.7766    4.0831    1.3917 H   0  0  0  0  0  0  0  0  0  0  0  0
   -1.3401    4.8529    1.4948 H   0  0  0  0  0  0  0  0  0  0  0  0
   -2.1099    4.7497    0.0583 H   0  0  0  0  0  0  0  0  0  0  0  0
    0.1409    0.8075    1.4742 H   0  0  0  0  0  0  0  0  0  0  0  0
    1.4742    0.1409    0.8075 H   0  0  0  0  0  0  0  0  0  0  0  0
    2.1374    2.7498    1.5250 H   0  0  0  0  0  0  0  0  0  0  0  0
    3.3238    3.0973    3.5504 H   0  0  0  0  0  0  0  0  0  0  0  0
    2.5228    1.1277    6.9580 H   0  0  0  0  0  0  0  0  0  0  0  0
    1.7070    2.2950    6.1589 H   0  0  0  0  0  0  0  0  0  0  0  0
    1.6665    0.7546    5.6185 H   0  0  0  0  0  0  0  0  0  0  0  0
    4.5495    0.1144    5.9446 H   0  0  0  0  0  0  0  0  0  0  0  0
    3.6932   -0.2587    4.6052 H   0  0  0  0  0  0  0  0  0  0  0  0
    5.0670    0.6150    4.4789 H   0  0  0  0  0  0  0  0  0  0  0  0
  1  2  1  0  0  0  0
  2  3  1  0  0  0  0
  3  4  1  0  0  0  0
  4  5  1  0  0  0  0
  3  6  2  0  0  0  0
  6  7  1  0  0  0  0
  7  8  2  0  0  0  0
  8  9  1  0  0  0  0
  9  2  2  0  0  0  0
  8 10  1  0  0  0  0
 10 11  1  0  0  0  0
 11 12  1  0  0  0  0
 12 13  2  0  0  0  0
 12 14  1  0  0  0  0
 14 15  1  0  0  0  0
 11 16  1  0  0  0  0
 16 17  1  0  0  0  0
 17 18  1  0  0  0  0
 18 19  2  0  0  0  0
 18 20  1  0  0  0  0
 20 21  1  0  0  0  0
 21 22  1  0  0  0  0
 22 23  1  0  0  0  0
 22 24  1  0  0  0  0
 22 25  1  0  0  0  0
 21 26  1  0  0  0  0
 21 27  1  0  0  0  0
  5 28  1  0  0  0  0
  5 29  1  0  0  0  0
  5 30  1  0  0  0  0
  6 31  1  0  0  0  0
  7 32  1  0  0  0  0
  9 33  1  0  0  0  0
 10 34  1  0  0  0  0
 10 35  1  0  0  0  0
 11 36  1  0  0  0  0
 14 37  1  0  0  0  0
 15 38  1  0  0  0  0
 15 39  1  0  0  0  0
 15 40  1  0  0  0  0
 16 41  1  0  0  0  0
 16 42  1  0  0  0  0
 17 43  1  0  0  0  0
 20 44  1  0  0  0  0
 26 45  1  0  0  0  0
 26 46  1  0  0  0  0
 26 47  1  0  0  0  0
 27 48  1  0  0  0  0
 27 49  1  0  0  0  0
 27 50  1  0  0  0  0
M  END
>  <result-rank>
100

>  <similarity>
0.925

>  <query-name>
LIG_A_1101_2_02

>  <query-smiles>
BrC#CCNC(=O)[C@@H](NC(=O)C)Cc1ccc(O)cc1

>  <source>
REALspace_2019-12

>  <similarity-descriptor>
0.965;0.990;0.988;0.988;1.000;0.995;0.824;0.824;0.852;0.995;1.000;0.704;0.125

>  <similarity-descriptor-smiles>
Fc1ccccc1;C(F)(F)F;CC;CC;N;C=O;CCN;CCN;C(=O)N;C;C;O;C.C

>  <reaction-name>
s_2430a

>  <reagent1-name>
11944322

>  <reagent1-smiles>
[R1*]C(=O)NC(C(F)(F)F)(C)C

>  <reagent2-name>
11566480

>  <reagent2-smiles>
[R1*]NCC(C(=O)NC)Cc1cc(F)c(OC)cc1

$$$$
