s_22____57764____17513450
          04022015093D 1   1.00000     0.00000     0
            
 42 42  0  0  0  0            999 V2000
    2.9700    2.0392    1.0000 O   0  0  0  0  0  0  0  0  0  0  0  0
    2.3700    1.0000    1.0000 C   0  0  0  0  0  0  0  0  0  0  0  0
    1.0000    1.0000    1.0000 N   0  0  0  0  0  0  0  0  0  0  0  0
    0.2650    2.2731    1.0000 C   0  0  0  0  0  0  0  0  0  0  0  0
   -1.2294    1.9953    1.0000 C   0  0  0  0  0  0  0  0  0  0  0  0
   -1.9894    3.3117    1.0000 C   0  0  0  0  0  0  0  0  0  0  0  0
   -3.4838    3.0339    1.0000 C   0  0  0  0  0  0  0  0  0  0  0  0
    3.1300   -0.3164    1.0000 C   0  0  3  0  0  0  0  0  0  0  0  0
    4.5752   -0.0477    1.0000 N   0  0  0  0  0  0  0  0  0  0  0  0
    5.3571   -0.5058    2.0275 C   0  0  0  0  0  0  0  0  0  0  0  0
    4.8622   -1.1263    2.9275 O   0  0  0  0  0  0  0  0  0  0  0  0
    6.8515   -0.2281    2.0275 C   0  0  0  0  0  0  0  0  0  0  0  0
    2.7628   -1.1134   -0.2411 C   0  0  0  0  0  0  0  0  0  0  0  0
    3.5228   -2.4298   -0.2411 C   0  0  0  0  0  0  0  0  0  0  0  0
    2.9568   -3.5469    0.3644 C   0  0  0  0  0  0  0  0  0  0  0  0
    3.6482   -4.7537    0.3662 C   0  0  0  0  0  0  0  0  0  0  0  0
    4.8987   -4.8280   -0.2391 C   0  0  0  0  0  0  0  0  0  0  0  0
    5.5734   -5.9972   -0.2393 O   0  0  0  0  0  0  0  0  0  0  0  0
    5.4695   -3.7138   -0.8457 C   0  0  0  0  0  0  0  0  0  0  0  0
    4.7735   -2.5097   -0.8449 C   0  0  0  0  0  0  0  0  0  0  0  0
    0.5000    0.1340    1.0000 H   0  0  0  0  0  0  0  0  0  0  0  0
    0.5066    2.7974    0.1835 H   0  0  0  0  0  0  0  0  0  0  0  0
    0.5066    2.7974    1.8165 H   0  0  0  0  0  0  0  0  0  0  0  0
   -1.4710    1.4709    1.8165 H   0  0  0  0  0  0  0  0  0  0  0  0
   -1.4710    1.4709    0.1835 H   0  0  0  0  0  0  0  0  0  0  0  0
   -1.7478    3.8360    0.1835 H   0  0  0  0  0  0  0  0  0  0  0  0
   -1.7478    3.8360    1.8165 H   0  0  0  0  0  0  0  0  0  0  0  0
   -3.9838    3.8999    1.0000 H   0  0  0  0  0  0  0  0  0  0  0  0
   -3.7254    2.5095    0.1835 H   0  0  0  0  0  0  0  0  0  0  0  0
   -3.7254    2.5095    1.8165 H   0  0  0  0  0  0  0  0  0  0  0  0
    2.8884   -0.8407    1.8165 H   0  0  0  0  0  0  0  0  0  0  0  0
    4.9877    0.4693    0.2500 H   0  0  0  0  0  0  0  0  0  0  0  0
    7.0931    0.2963    1.2110 H   0  0  0  0  0  0  0  0  0  0  0  0
    7.0931    0.2963    2.8440 H   0  0  0  0  0  0  0  0  0  0  0  0
    7.3515   -1.0941    2.0275 H   0  0  0  0  0  0  0  0  0  0  0  0
    1.7796   -1.2961   -0.2411 H   0  0  0  0  0  0  0  0  0  0  0  0
    3.0044   -0.5890   -1.0576 H   0  0  0  0  0  0  0  0  0  0  0  0
    2.0571   -3.4826    0.7963 H   0  0  0  0  0  0  0  0  0  0  0  0
    3.2494   -5.5620    0.7993 H   0  0  0  0  0  0  0  0  0  0  0  0
    6.4725   -6.0555   -0.6731 H   0  0  0  0  0  0  0  0  0  0  0  0
    6.3694   -3.7778   -1.2771 H   0  0  0  0  0  0  0  0  0  0  0  0
    5.1720   -1.7014   -1.2783 H   0  0  0  0  0  0  0  0  0  0  0  0
  1  2  2  0  0  0  0
  2  3  1  0  0  0  0
  3  4  1  0  0  0  0
  4  5  1  0  0  0  0
  5  6  1  0  0  0  0
  6  7  1  0  0  0  0
  2  8  1  0  0  0  0
  8  9  1  0  0  0  0
  9 10  1  0  0  0  0
 10 11  2  0  0  0  0
 10 12  1  0  0  0  0
  8 13  1  0  0  0  0
 13 14  1  0  0  0  0
 14 15  1  0  0  0  0
 15 16  2  0  0  0  0
 16 17  1  0  0  0  0
 17 18  1  0  0  0  0
 17 19  2  0  0  0  0
 19 20  1  0  0  0  0
 20 14  2  0  0  0  0
  3 21  1  0  0  0  0
  4 22  1  0  0  0  0
  4 23  1  0  0  0  0
  5 24  1  0  0  0  0
  5 25  1  0  0  0  0
  6 26  1  0  0  0  0
  6 27  1  0  0  0  0
  7 28  1  0  0  0  0
  7 29  1  0  0  0  0
  7 30  1  0  0  0  0
  8 31  1  0  0  0  0
  9 32  1  0  0  0  0
 12 33  1  0  0  0  0
 12 34  1  0  0  0  0
 12 35  1  0  0  0  0
 13 36  1  0  0  0  0
 13 37  1  0  0  0  0
 15 38  1  0  0  0  0
 16 39  1  0  0  0  0
 18 40  1  0  0  0  0
 19 41  1  0  0  0  0
 20 42  1  0  0  0  0
M  END
>  <result-rank>
1

>  <similarity>
1.000

>  <query-name>
LIG_A_1101_CCCC[R*]_2

>  <query-smiles>
O=C(NCCCC)[C@@H](NC(=O)C)Cc1ccc(O)cc1

>  <source>
REALspace_2019-12

>  <similarity-descriptor>
1.000;1.000;1.000;1.000;1.000;1.000;1.000;1.000;1.000;1.000;1.000;1.000;1.000;0.0

>  <similarity-descriptor-smiles>
c1ccccc1;O=C;N;C;C;C;C;C;N;C=O;C;C;O;

>  <reaction-name>
s_22

>  <reagent1-name>
57764

>  <reagent1-smiles>
[R1*]NCCCC

>  <reagent2-name>
17513450

>  <reagent2-smiles>
[R1*]C(=O)C(NC(=O)C)Cc1ccc(O)cc1

$$$$
s_22____12206138____9320452
          04022015093D 1   1.00000     0.00000     0
            
 42 43  0  0  0  0            999 V2000
    3.1767    1.0994   -1.2506 O   0  0  0  0  0  0  0  0  0  0  0  0
    2.9767    1.7165   -0.2411 C   0  0  0  0  0  0  0  0  0  0  0  0
    3.1950    3.0078   -0.2086 O   0  0  0  0  0  0  0  0  0  0  0  0
    3.6683    3.6772   -1.3681 C   0  0  0  0  0  0  0  0  0  0  0  0
    2.4700    1.0000    1.0000 C   0  0  3  0  0  0  0  0  0  0  0  0
    1.0000    1.0000    1.0000 N   0  0  0  0  0  0  0  0  0  0  0  0
    0.3150    1.0000    2.1865 C   0  0  0  0  0  0  0  0  0  0  0  0
    0.9150    1.0000    3.2257 O   0  0  0  0  0  0  0  0  0  0  0  0
   -1.2050    1.0000    2.1865 C   0  0  0  0  0  0  0  0  0  0  0  0
   -1.7115   -0.4327    2.1865 C   0  0  0  0  0  0  0  0  0  0  0  0
   -1.2910   -1.2732    3.3585 C   0  0  0  0  0  0  0  0  0  0  0  0
   -0.6764   -1.5068    2.0082 C   0  0  0  0  0  0  0  0  0  0  0  0
   -3.0898   -0.7280    1.6176 C   0  0  0  0  0  0  0  0  0  0  0  0
    2.9767   -0.4331    1.0000 C   0  0  0  0  0  0  0  0  0  0  0  0
    4.3942   -0.4694    1.5486 C   0  0  0  0  0  0  0  0  0  0  0  0
    4.6078   -0.4825    2.9234 C   0  0  0  0  0  0  0  0  0  0  0  0
    3.5678   -0.4626    3.7844 O   0  0  0  0  0  0  0  0  0  0  0  0
    5.9051   -0.5156    3.4255 C   0  0  0  0  0  0  0  0  0  0  0  0
    6.9885   -0.5362    2.5525 C   0  0  0  0  0  0  0  0  0  0  0  0
    6.7743   -0.5238    1.1778 C   0  0  0  0  0  0  0  0  0  0  0  0
    5.4773   -0.4910    0.6761 C   0  0  0  0  0  0  0  0  0  0  0  0
    3.7794    4.6508   -1.1688 H   0  0  0  0  0  0  0  0  0  0  0  0
    4.5492    3.2900   -1.6402 H   0  0  0  0  0  0  0  0  0  0  0  0
    3.0096    3.5622   -2.1116 H   0  0  0  0  0  0  0  0  0  0  0  0
    2.8033    1.4714    1.8165 H   0  0  0  0  0  0  0  0  0  0  0  0
    0.5000    1.0000    0.1340 H   0  0  0  0  0  0  0  0  0  0  0  0
   -1.5383    1.4714    1.3700 H   0  0  0  0  0  0  0  0  0  0  0  0
   -1.5383    1.4714    3.0030 H   0  0  0  0  0  0  0  0  0  0  0  0
   -1.9226   -1.9461    3.7435 H   0  0  0  0  0  0  0  0  0  0  0  0
   -0.7455   -0.8696    4.0931 H   0  0  0  0  0  0  0  0  0  0  0  0
    0.2783   -1.2587    1.8438 H   0  0  0  0  0  0  0  0  0  0  0  0
   -0.8988   -2.3352    1.4942 H   0  0  0  0  0  0  0  0  0  0  0  0
   -3.2769   -1.7077    1.6887 H   0  0  0  0  0  0  0  0  0  0  0  0
   -3.7792   -0.2187    2.1328 H   0  0  0  0  0  0  0  0  0  0  0  0
   -3.1201   -0.4517    0.6570 H   0  0  0  0  0  0  0  0  0  0  0  0
    2.3826   -0.9967    1.5739 H   0  0  0  0  0  0  0  0  0  0  0  0
    2.9718   -0.7884    0.0653 H   0  0  0  0  0  0  0  0  0  0  0  0
    3.7346   -0.4723    4.7704 H   0  0  0  0  0  0  0  0  0  0  0  0
    6.0588   -0.5246    4.4136 H   0  0  0  0  0  0  0  0  0  0  0  0
    7.9209   -0.5599    2.9131 H   0  0  0  0  0  0  0  0  0  0  0  0
    7.5529   -0.5384    0.5504 H   0  0  0  0  0  0  0  0  0  0  0  0
    5.3235   -0.4829   -0.3120 H   0  0  0  0  0  0  0  0  0  0  0  0
  1  2  2  0  0  0  0
  2  3  1  0  0  0  0
  3  4  1  0  0  0  0
  2  5  1  0  0  0  0
  5  6  1  0  0  0  0
  6  7  1  0  0  0  0
  7  8  2  0  0  0  0
  7  9  1  0  0  0  0
  9 10  1  0  0  0  0
 10 11  1  0  0  0  0
 11 12  1  0  0  0  0
 12 10  1  0  0  0  0
 10 13  1  0  0  0  0
  5 14  1  0  0  0  0
 14 15  1  0  0  0  0
 15 16  1  0  0  0  0
 16 17  1  0  0  0  0
 16 18  2  0  0  0  0
 18 19  1  0  0  0  0
 19 20  2  0  0  0  0
 20 21  1  0  0  0  0
 21 15  2  0  0  0  0
  4 22  1  0  0  0  0
  4 23  1  0  0  0  0
  4 24  1  0  0  0  0
  5 25  1  0  0  0  0
  6 26  1  0  0  0  0
  9 27  1  0  0  0  0
  9 28  1  0  0  0  0
 11 29  1  0  0  0  0
 11 30  1  0  0  0  0
 12 31  1  0  0  0  0
 12 32  1  0  0  0  0
 13 33  1  0  0  0  0
 13 34  1  0  0  0  0
 13 35  1  0  0  0  0
 14 36  1  0  0  0  0
 14 37  1  0  0  0  0
 17 38  1  0  0  0  0
 18 39  1  0  0  0  0
 19 40  1  0  0  0  0
 20 41  1  0  0  0  0
 21 42  1  0  0  0  0
M  END
>  <result-rank>
2

>  <similarity>
0.950

>  <query-name>
LIG_A_1101_CCCC[R*]_2

>  <query-smiles>
O=C(NCCCC)[C@@H](NC(=O)C)Cc1ccc(O)cc1

>  <source>
REALspace_2019-12

>  <similarity-descriptor>
1.000;0.852;0.852;0.993;0.888;0.888;1.000;1.000;1.000;0.855;0.994;1.000;1.000;0.0

>  <similarity-descriptor-smiles>
c1ccccc1;C=O;C=O;C;C1CC1;C1CC1;C;CN;CN;O=CO;C;C;O;

>  <reaction-name>
s_22

>  <reagent1-name>
12206138

>  <reagent1-smiles>
[R1*]NC(C(=O)OC)Cc1c(O)cccc1

>  <reagent2-name>
9320452

>  <reagent2-smiles>
[R1*]C(=O)CC1(CC1)C

$$$$
s_2708____12635628____12427832
          04022015093D 1   1.00000     0.00000     0
            
 41 41  0  0  0  0            999 V2000
   -4.7794    2.3450   -3.0168 Br  0  0  0  0  0  0  0  0  0  0  0  0
   -3.2258    3.0487   -2.0512 C   0  0  0  0  0  0  0  0  0  0  0  0
   -2.7654    2.3905   -0.9161 C   0  0  0  0  0  0  0  0  0  0  0  0
   -1.6618    2.9031   -0.2413 C   0  0  0  0  0  0  0  0  0  0  0  0
   -1.0217    4.0548   -0.6863 C   0  0  0  0  0  0  0  0  0  0  0  0
   -1.4992    4.6978   -1.8236 C   0  0  0  0  0  0  0  0  0  0  0  0
   -2.6008    4.2022   -2.5130 C   0  0  0  0  0  0  0  0  0  0  0  0
   -1.1550    2.1865    1.0000 C   0  0  3  0  0  0  0  0  0  0  0  0
    0.3150    2.1865    1.0000 N   0  0  0  0  0  0  0  0  0  0  0  0
    1.0000    1.0000    1.0000 C   0  0  0  0  0  0  0  0  0  0  0  0
    0.4000   -0.0392    1.0000 O   0  0  0  0  0  0  0  0  0  0  0  0
    2.3700    1.0000    1.0000 N   0  0  0  0  0  0  0  0  0  0  0  0
    3.1050   -0.2731    1.0000 C   0  0  0  0  0  0  0  0  0  0  0  0
    3.1428   -0.8363   -0.4113 C   0  0  0  0  0  0  0  0  0  0  0  0
    3.9028   -2.1526   -0.4113 C   0  0  3  0  0  0  0  0  0  0  0  0
    5.2290   -1.9335    0.0466 O   0  0  0  0  0  0  0  0  0  0  0  0
    3.9406   -2.7158   -1.8226 C   0  0  0  0  0  0  0  0  0  0  0  0
    4.6056   -3.8677   -1.8226 F   0  0  0  0  0  0  0  0  0  0  0  0
    2.6985   -2.9211   -2.2515 F   0  0  0  0  0  0  0  0  0  0  0  0
   -1.6617    2.9030    2.2411 C   0  0  0  0  0  0  0  0  0  0  0  0
   -3.0817    2.9030    2.2411 O   0  0  0  0  0  0  0  0  0  0  0  0
   -3.5550    3.5724    3.4005 C   0  0  0  0  0  0  0  0  0  0  0  0
   -3.2203    1.5619   -0.5899 H   0  0  0  0  0  0  0  0  0  0  0  0
   -0.2289    4.4159   -0.1952 H   0  0  0  0  0  0  0  0  0  0  0  0
   -1.0447    5.5268   -2.1496 H   0  0  0  0  0  0  0  0  0  0  0  0
   -2.9391    4.6691   -3.3300 H   0  0  0  0  0  0  0  0  0  0  0  0
   -1.4883    1.2436    1.0000 H   0  0  0  0  0  0  0  0  0  0  0  0
    0.8150    3.0525    1.0000 H   0  0  0  0  0  0  0  0  0  0  0  0
    2.8700    1.8660    1.0000 H   0  0  0  0  0  0  0  0  0  0  0  0
    2.6462   -0.9228    1.6060 H   0  0  0  0  0  0  0  0  0  0  0  0
    4.0389   -0.1188    1.3225 H   0  0  0  0  0  0  0  0  0  0  0  0
    2.2089   -0.9906   -0.7338 H   0  0  0  0  0  0  0  0  0  0  0  0
    3.6016   -0.1865   -1.0173 H   0  0  0  0  0  0  0  0  0  0  0  0
    3.4440   -2.8024    0.1947 H   0  0  0  0  0  0  0  0  0  0  0  0
    5.2041   -1.5630    0.9751 H   0  0  0  0  0  0  0  0  0  0  0  0
    4.3995   -2.0660   -2.4286 H   0  0  0  0  0  0  0  0  0  0  0  0
   -1.3283    2.4316    3.0576 H   0  0  0  0  0  0  0  0  0  0  0  0
   -1.3283    3.8458    2.2411 H   0  0  0  0  0  0  0  0  0  0  0  0
   -4.5550    3.5724    3.4005 H   0  0  0  0  0  0  0  0  0  0  0  0
   -3.2217    3.1010    4.2170 H   0  0  0  0  0  0  0  0  0  0  0  0
   -3.2217    4.5152    3.4005 H   0  0  0  0  0  0  0  0  0  0  0  0
  1  2  1  0  0  0  0
  2  3  1  0  0  0  0
  3  4  2  0  0  0  0
  4  5  1  0  0  0  0
  5  6  2  0  0  0  0
  6  7  1  0  0  0  0
  7  2  2  0  0  0  0
  4  8  1  0  0  0  0
  8  9  1  0  0  0  0
  9 10  1  0  0  0  0
 10 11  2  0  0  0  0
 10 12  1  0  0  0  0
 12 13  1  0  0  0  0
 13 14  1  0  0  0  0
 14 15  1  0  0  0  0
 15 16  1  0  0  0  0
 15 17  1  0  0  0  0
 17 18  1  0  0  0  0
 17 19  1  0  0  0  0
  8 20  1  0  0  0  0
 20 21  1  0  0  0  0
 21 22  1  0  0  0  0
  3 23  1  0  0  0  0
  5 24  1  0  0  0  0
  6 25  1  0  0  0  0
  7 26  1  0  0  0  0
  8 27  1  0  0  0  0
  9 28  1  0  0  0  0
 12 29  1  0  0  0  0
 13 30  1  0  0  0  0
 13 31  1  0  0  0  0
 14 32  1  0  0  0  0
 14 33  1  0  0  0  0
 15 34  1  0  0  0  0
 16 35  1  0  0  0  0
 17 36  1  0  0  0  0
 20 37  1  0  0  0  0
 20 38  1  0  0  0  0
 22 39  1  0  0  0  0
 22 40  1  0  0  0  0
 22 41  1  0  0  0  0
M  END
>  <result-rank>
3

>  <similarity>
0.950

>  <query-name>
LIG_A_1101_CCCC[R*]_2

>  <query-smiles>
O=C(NCCCC)[C@@H](NC(=O)C)Cc1ccc(O)cc1

>  <source>
REALspace_2019-12

>  <similarity-descriptor>
0.969;0.995;1.000;1.000;1.000;0.994;0.994;1.000;1.000;0.770;0.994;0.969;0.0;0.077

>  <similarity-descriptor-smiles>
Brc1ccccc1;C=O;N;C;C;CC(F)F;CC(F)F;CN;CN;CO;C;Brc1ccccc1;;O

>  <reaction-name>
s_2708

>  <reagent1-name>
12635628

>  <reagent1-smiles>
[R1*]C(=O)NC(c1cc(Br)ccc1)COC

>  <reagent2-name>
12427832

>  <reagent2-smiles>
[R1*]NCCC(O)C(F)F

$$$$
s_22____13811180____5637262
          04022015093D 1   1.00000     0.00000     0
            
 39 40  0  0  0  0            999 V2000
    4.6075    2.5242    2.1085 F   0  0  0  0  0  0  0  0  0  0  0  0
    4.2177    1.3941    2.6912 C   0  0  0  0  0  0  0  0  0  0  0  0
    2.8827    1.0098    2.6181 C   0  0  0  0  0  0  0  0  0  0  0  0
    2.4524   -0.1682    3.2196 C   0  0  0  0  0  0  0  0  0  0  0  0
    3.3738   -0.9610    3.8970 C   0  0  0  0  0  0  0  0  0  0  0  0
    4.7072   -0.5718    3.9669 C   0  0  0  0  0  0  0  0  0  0  0  0
    5.5860   -1.3302    4.6146 F   0  0  0  0  0  0  0  0  0  0  0  0
    5.1420    0.6052    3.3676 C   0  0  0  0  0  0  0  0  0  0  0  0
    1.8776    1.8776    1.8776 C   0  0  3  0  0  0  0  0  0  0  0  0
    1.0385    2.5935    2.8494 N   0  0  0  0  0  0  0  0  0  0  0  0
    1.0211    3.9634    2.8612 C   0  0  0  0  0  0  0  0  0  0  0  0
    1.6907    4.5788    2.0783 O   0  0  0  0  0  0  0  0  0  0  0  0
    0.1535    4.7037    3.8661 C   0  0  0  0  0  0  0  0  0  0  0  0
    1.0000    1.0000    1.0000 C   0  0  0  0  0  0  0  0  0  0  0  0
    1.8776    0.1224    0.1224 C   0  0  0  0  0  0  0  0  0  0  0  0
    2.7405    0.6173   -0.5487 O   0  0  0  0  0  0  0  0  0  0  0  0
    1.6833   -1.2335    0.0977 N   0  0  0  0  0  0  0  0  0  0  0  0
    2.5321   -2.0823   -0.7511 C   0  0  0  0  0  0  0  0  0  0  0  0
    3.2661   -3.0788    0.1107 C   0  0  0  0  0  0  0  0  0  0  0  0
    3.0321   -4.0802   -1.0002 C   0  0  3  0  0  0  0  0  0  0  0  0
    2.7342   -5.2859   -0.5235 F   0  0  0  0  0  0  0  0  0  0  0  0
    1.7818   -3.2795   -1.2865 C   0  0  0  0  0  0  0  0  0  0  0  0
    1.4922   -0.4422    3.1659 H   0  0  0  0  0  0  0  0  0  0  0  0
    3.0773   -1.8104    4.3335 H   0  0  0  0  0  0  0  0  0  0  0  0
    6.1021    0.8795    3.4220 H   0  0  0  0  0  0  0  0  0  0  0  0
    2.3646    2.5386    1.3068 H   0  0  0  0  0  0  0  0  0  0  0  0
    0.4806    2.0807    3.5018 H   0  0  0  0  0  0  0  0  0  0  0  0
   -0.3335    4.0426    4.4368 H   0  0  0  0  0  0  0  0  0  0  0  0
    0.7308    5.2810    4.4434 H   0  0  0  0  0  0  0  0  0  0  0  0
   -0.5076    5.2744    3.3790 H   0  0  0  0  0  0  0  0  0  0  0  0
    0.4226    0.4226    1.5774 H   0  0  0  0  0  0  0  0  0  0  0  0
    0.4226    1.5774    0.4226 H   0  0  0  0  0  0  0  0  0  0  0  0
    0.9642   -1.6459    0.6569 H   0  0  0  0  0  0  0  0  0  0  0  0
    3.0953   -1.5951   -1.4185 H   0  0  0  0  0  0  0  0  0  0  0  0
    4.2264   -2.8586    0.2821 H   0  0  0  0  0  0  0  0  0  0  0  0
    2.8149   -3.2983    0.9758 H   0  0  0  0  0  0  0  0  0  0  0  0
    3.7165   -4.0708   -1.7292 H   0  0  0  0  0  0  0  0  0  0  0  0
    0.9803   -3.5466   -0.7513 H   0  0  0  0  0  0  0  0  0  0  0  0
    1.5327   -3.2211   -2.2532 H   0  0  0  0  0  0  0  0  0  0  0  0
  1  2  1  0  0  0  0
  2  3  1  0  0  0  0
  3  4  2  0  0  0  0
  4  5  1  0  0  0  0
  5  6  2  0  0  0  0
  6  7  1  0  0  0  0
  6  8  1  0  0  0  0
  8  2  2  0  0  0  0
  3  9  1  0  0  0  0
  9 10  1  0  0  0  0
 10 11  1  0  0  0  0
 11 12  2  0  0  0  0
 11 13  1  0  0  0  0
  9 14  1  0  0  0  0
 14 15  1  0  0  0  0
 15 16  2  0  0  0  0
 15 17  1  0  0  0  0
 17 18  1  0  0  0  0
 18 19  1  0  0  0  0
 19 20  1  0  0  0  0
 20 21  1  0  0  0  0
 20 22  1  0  0  0  0
 22 18  1  0  0  0  0
  4 23  1  0  0  0  0
  5 24  1  0  0  0  0
  8 25  1  0  0  0  0
  9 26  1  0  0  0  0
 10 27  1  0  0  0  0
 13 28  1  0  0  0  0
 13 29  1  0  0  0  0
 13 30  1  0  0  0  0
 14 31  1  0  0  0  0
 14 32  1  0  0  0  0
 17 33  1  0  0  0  0
 18 34  1  0  0  0  0
 19 35  1  0  0  0  0
 19 36  1  0  0  0  0
 20 37  1  0  0  0  0
 22 38  1  0  0  0  0
 22 39  1  0  0  0  0
M  END
>  <result-rank>
4

>  <similarity>
0.950

>  <query-name>
LIG_A_1101_CCCC[R*]_2

>  <query-smiles>
O=C(NCCCC)[C@@H](NC(=O)C)Cc1ccc(O)cc1

>  <source>
REALspace_2019-12

>  <similarity-descriptor>
0.948;1.000;1.000;0.884;0.884;0.884;0.884;1.000;1.000;1.000;1.000;1.000;0.0;0.0

>  <similarity-descriptor-smiles>
Fc1cc(ccc1)F;C=O;N;C1CC(C1)F;C1CC(C1)F;C1CC(C1)F;C1CC(C1)F;CC;N;C=O;C;CC;;

>  <reaction-name>
s_22

>  <reagent1-name>
13811180

>  <reagent1-smiles>
[R1*]NC1CC(F)C1

>  <reagent2-name>
5637262

>  <reagent2-smiles>
[R1*]C(=O)CC(NC(=O)C)c1c(F)cc(F)cc1

$$$$
s_22____3048356____16887748
          04022015093D 1   1.00000     0.00000     0
            
 50 51  0  0  0  0            999 V2000
    3.8386   -0.9114    0.7812 O   0  0  0  0  0  0  0  0  0  0  0  0
    2.9767   -0.2411    0.2835 C   0  0  0  0  0  0  0  0  0  0  0  0
    2.4493   -0.5944   -0.9306 N   0  0  0  0  0  0  0  0  0  0  0  0
    2.8593   -1.8521   -1.5722 C   0  0  3  0  0  0  0  0  0  0  0  0
    1.7809   -2.4536   -2.4342 C   0  0  3  0  0  0  0  0  0  0  0  0
    2.0491   -3.0153   -1.0695 C   0  0  0  0  0  0  0  0  0  0  0  0
    0.4905   -1.6534   -2.4403 C   0  0  0  0  0  0  0  0  0  0  0  0
    2.4700    1.0000    1.0000 C   0  0  3  0  0  0  0  0  0  0  0  0
    1.0000    1.0000    1.0000 N   0  0  0  0  0  0  0  0  0  0  0  0
    0.3150    1.0000    2.1865 C   0  0  0  0  0  0  0  0  0  0  0  0
    0.9150    1.0000    3.2257 O   0  0  0  0  0  0  0  0  0  0  0  0
   -1.2050    1.0000    2.1865 C   0  0  0  0  0  0  0  0  0  0  0  0
   -1.6783    1.0000    3.5252 O   0  0  0  0  0  0  0  0  0  0  0  0
   -3.0983    1.0000    3.5252 C   0  0  0  0  0  0  0  0  0  0  0  0
   -3.6050    1.0000    4.9583 C   0  0  0  0  0  0  0  0  0  0  0  0
   -3.6050    2.2411    2.8087 C   0  0  0  0  0  0  0  0  0  0  0  0
    2.9767    2.2411    0.2835 C   0  0  0  0  0  0  0  0  0  0  0  0
    2.4700    3.4822    1.0000 C   0  0  0  0  0  0  0  0  0  0  0  0
    3.2306    4.0410    2.0218 C   0  0  0  0  0  0  0  0  0  0  0  0
    2.7714    5.1770    2.6798 C   0  0  0  0  0  0  0  0  0  0  0  0
    1.5555    5.7409    2.3064 C   0  0  0  0  0  0  0  0  0  0  0  0
    1.1058    6.8432    2.9425 O   0  0  0  0  0  0  0  0  0  0  0  0
    0.7907    5.1858    1.2854 C   0  0  0  0  0  0  0  0  0  0  0  0
    1.2550    4.0500    0.6306 C   0  0  0  0  0  0  0  0  0  0  0  0
    1.7855    0.0032   -1.3804 H   0  0  0  0  0  0  0  0  0  0  0  0
    3.8191   -1.9898   -1.8169 H   0  0  0  0  0  0  0  0  0  0  0  0
    2.0356   -2.9832   -3.2434 H   0  0  0  0  0  0  0  0  0  0  0  0
    1.3846   -2.8807   -0.3345 H   0  0  0  0  0  0  0  0  0  0  0  0
    2.4735   -3.9158   -0.9745 H   0  0  0  0  0  0  0  0  0  0  0  0
   -0.1795   -2.1058   -3.0290 H   0  0  0  0  0  0  0  0  0  0  0  0
    0.1303   -1.5947   -1.5093 H   0  0  0  0  0  0  0  0  0  0  0  0
    0.6708   -0.7328   -2.7867 H   0  0  0  0  0  0  0  0  0  0  0  0
    2.8033    1.0000    1.9428 H   0  0  0  0  0  0  0  0  0  0  0  0
    0.5000    1.0000    0.1340 H   0  0  0  0  0  0  0  0  0  0  0  0
   -1.5383    1.8165    1.7151 H   0  0  0  0  0  0  0  0  0  0  0  0
   -1.5383    0.1835    1.7151 H   0  0  0  0  0  0  0  0  0  0  0  0
   -3.4317    0.1835    3.0538 H   0  0  0  0  0  0  0  0  0  0  0  0
   -4.6050    1.0000    4.9583 H   0  0  0  0  0  0  0  0  0  0  0  0
   -3.2717    0.1835    5.4297 H   0  0  0  0  0  0  0  0  0  0  0  0
   -3.2717    1.8165    5.4297 H   0  0  0  0  0  0  0  0  0  0  0  0
   -4.6050    2.2411    2.8087 H   0  0  0  0  0  0  0  0  0  0  0  0
   -3.2717    3.0576    3.2801 H   0  0  0  0  0  0  0  0  0  0  0  0
   -3.2717    2.2411    1.8659 H   0  0  0  0  0  0  0  0  0  0  0  0
    3.9767    2.2411    0.2835 H   0  0  0  0  0  0  0  0  0  0  0  0
    2.6433    2.2411   -0.6593 H   0  0  0  0  0  0  0  0  0  0  0  0
    4.1034    3.6279    2.2820 H   0  0  0  0  0  0  0  0  0  0  0  0
    3.3111    5.5856    3.4158 H   0  0  0  0  0  0  0  0  0  0  0  0
    0.2325    7.2521    2.6777 H   0  0  0  0  0  0  0  0  0  0  0  0
   -0.0823    5.5984    1.0255 H   0  0  0  0  0  0  0  0  0  0  0  0
    0.7154    3.6416   -0.1057 H   0  0  0  0  0  0  0  0  0  0  0  0
  1  2  2  0  0  0  0
  2  3  1  0  0  0  0
  3  4  1  0  0  0  0
  4  5  1  0  0  0  0
  5  6  1  0  0  0  0
  6  4  1  0  0  0  0
  5  7  1  0  0  0  0
  2  8  1  0  0  0  0
  8  9  1  0  0  0  0
  9 10  1  0  0  0  0
 10 11  2  0  0  0  0
 10 12  1  0  0  0  0
 12 13  1  0  0  0  0
 13 14  1  0  0  0  0
 14 15  1  0  0  0  0
 14 16  1  0  0  0  0
  8 17  1  0  0  0  0
 17 18  1  0  0  0  0
 18 19  1  0  0  0  0
 19 20  2  0  0  0  0
 20 21  1  0  0  0  0
 21 22  1  0  0  0  0
 21 23  2  0  0  0  0
 23 24  1  0  0  0  0
 24 18  2  0  0  0  0
  3 25  1  0  0  0  0
  4 26  1  0  0  0  0
  5 27  1  0  0  0  0
  6 28  1  0  0  0  0
  6 29  1  0  0  0  0
  7 30  1  0  0  0  0
  7 31  1  0  0  0  0
  7 32  1  0  0  0  0
  8 33  1  0  0  0  0
  9 34  1  0  0  0  0
 12 35  1  0  0  0  0
 12 36  1  0  0  0  0
 14 37  1  0  0  0  0
 15 38  1  0  0  0  0
 15 39  1  0  0  0  0
 15 40  1  0  0  0  0
 16 41  1  0  0  0  0
 16 42  1  0  0  0  0
 16 43  1  0  0  0  0
 17 44  1  0  0  0  0
 17 45  1  0  0  0  0
 19 46  1  0  0  0  0
 20 47  1  0  0  0  0
 22 48  1  0  0  0  0
 23 49  1  0  0  0  0
 24 50  1  0  0  0  0
M  END
>  <result-rank>
5

>  <similarity>
0.950

>  <query-name>
LIG_A_1101_CCCC[R*]_2

>  <query-smiles>
O=C(NCCCC)[C@@H](NC(=O)C)Cc1ccc(O)cc1

>  <source>
REALspace_2019-12

>  <similarity-descriptor>
1.000;1.000;1.000;0.871;0.871;0.871;1.000;1.000;1.000;1.000;0.956;1.000;1.000;0.267

>  <similarity-descriptor-smiles>
c1ccccc1;O=C;N;C1CC1;C1CC1;C1CC1;C;C;N;C=O;C;C;O;O.C.C.C

>  <reaction-name>
s_22

>  <reagent1-name>
3048356

>  <reagent1-smiles>
[R1*]NC1C(C1)C

>  <reagent2-name>
16887748

>  <reagent2-smiles>
[R1*]C(=O)C(NC(=O)COC(C)C)Cc1ccc(O)cc1

$$$$
s_240690a____16979978____7408870
          04022015093D 1   1.00000     0.00000     0
            
 49 49  0  0  0  0            999 V2000
    0.4000    1.0000   -0.0392 O   0  0  0  0  0  0  0  0  0  0  0  0
    1.0000    1.0000    1.0000 C   0  0  0  0  0  0  0  0  0  0  0  0
    0.3150    1.0000    2.1865 N   0  0  0  0  0  0  0  0  0  0  0  0
   -1.1550    1.0000    2.1865 C   0  0  0  0  0  0  0  0  0  0  0  0
   -1.6617    1.0000    3.6195 C   0  0  3  0  0  0  0  0  0  0  0  0
   -1.1717   -0.2002    4.3125 N   0  3  0  0  0  0  0  0  0  0  0  0
   -3.1817    1.0000    3.6195 C   0  0  0  0  0  0  0  0  0  0  0  0
   -3.6550    1.0000    4.9583 O   0  0  0  0  0  0  0  0  0  0  0  0
   -1.1550    2.2411    4.3361 C   0  0  0  0  0  0  0  0  0  0  0  0
    2.5200    1.0000    1.0000 C   0  0  0  0  0  0  0  0  0  0  0  0
    3.0267    1.4309   -0.3667 C   0  0  3  0  0  0  0  0  0  0  0  0
    4.4967    1.4309   -0.3667 N   0  0  0  0  0  0  0  0  0  0  0  0
    5.1817    0.6294   -1.2415 C   0  0  0  0  0  0  0  0  0  0  0  0
    4.5817   -0.0727   -2.0077 O   0  0  0  0  0  0  0  0  0  0  0  0
    6.7017    0.6294   -1.2415 C   0  0  0  0  0  0  0  0  0  0  0  0
    2.5200    2.8301   -0.6769 C   0  0  0  0  0  0  0  0  0  0  0  0
    2.8191    3.8745    0.1918 C   0  0  0  0  0  0  0  0  0  0  0  0
    2.3582    5.1565   -0.0884 C   0  0  0  0  0  0  0  0  0  0  0  0
    1.6033    5.3780   -1.2359 C   0  0  0  0  0  0  0  0  0  0  0  0
    1.1538    6.6206   -1.5114 O   0  0  0  0  0  0  0  0  0  0  0  0
    0.0857    6.8019   -2.4295 C   0  0  0  0  0  0  0  0  0  0  0  0
    1.3011    4.3369   -2.1078 C   0  0  0  0  0  0  0  0  0  0  0  0
    1.7649    3.0570   -1.8230 C   0  0  0  0  0  0  0  0  0  0  0  0
   -0.1717   -0.2002    4.3125 H   0  0  0  0  0  0  0  0  0  0  0  0
   -1.5050   -0.2002    5.2553 H   0  0  0  0  0  0  0  0  0  0  0  0
   -1.5050   -1.0167    3.8411 H   0  0  0  0  0  0  0  0  0  0  0  0
    0.8150    1.0000    3.0525 H   0  0  0  0  0  0  0  0  0  0  0  0
   -1.4883    0.1835    1.7151 H   0  0  0  0  0  0  0  0  0  0  0  0
   -1.4883    1.8165    1.7151 H   0  0  0  0  0  0  0  0  0  0  0  0
   -3.5150    1.8165    3.1481 H   0  0  0  0  0  0  0  0  0  0  0  0
   -3.5150    0.1835    3.1481 H   0  0  0  0  0  0  0  0  0  0  0  0
   -4.6550    1.0000    4.9583 H   0  0  0  0  0  0  0  0  0  0  0  0
   -1.4883    3.0576    3.8647 H   0  0  0  0  0  0  0  0  0  0  0  0
   -1.4883    2.2411    5.2789 H   0  0  0  0  0  0  0  0  0  0  0  0
   -0.1550    2.2411    4.3361 H   0  0  0  0  0  0  0  0  0  0  0  0
    2.8533    0.0795    1.2041 H   0  0  0  0  0  0  0  0  0  0  0  0
    2.8533    1.6370    1.6951 H   0  0  0  0  0  0  0  0  0  0  0  0
    2.6933    0.7940   -1.0619 H   0  0  0  0  0  0  0  0  0  0  0  0
    4.9967    2.0160    0.2718 H   0  0  0  0  0  0  0  0  0  0  0  0
    7.0350    1.2663   -0.5464 H   0  0  0  0  0  0  0  0  0  0  0  0
    7.0350   -0.2911   -1.0374 H   0  0  0  0  0  0  0  0  0  0  0  0
    7.0350    0.9129   -2.1407 H   0  0  0  0  0  0  0  0  0  0  0  0
    3.3627    3.7044    1.0137 H   0  0  0  0  0  0  0  0  0  0  0  0
    2.5679    5.9135    0.5305 H   0  0  0  0  0  0  0  0  0  0  0  0
   -0.1181    7.7771   -2.5153 H   0  0  0  0  0  0  0  0  0  0  0  0
    0.3482    6.4364   -3.3226 H   0  0  0  0  0  0  0  0  0  0  0  0
   -0.7249    6.3199   -2.0972 H   0  0  0  0  0  0  0  0  0  0  0  0
    0.7570    4.5068   -2.9294 H   0  0  0  0  0  0  0  0  0  0  0  0
    1.5555    2.3001   -2.4420 H   0  0  0  0  0  0  0  0  0  0  0  0
  1  2  2  0  0  0  0
  2  3  1  0  0  0  0
  3  4  1  0  0  0  0
  4  5  1  0  0  0  0
  5  6  1  0  0  0  0
  5  7  1  0  0  0  0
  7  8  1  0  0  0  0
  5  9  1  0  0  0  0
  2 10  1  0  0  0  0
 10 11  1  0  0  0  0
 11 12  1  0  0  0  0
 12 13  1  0  0  0  0
 13 14  2  0  0  0  0
 13 15  1  0  0  0  0
 11 16  1  0  0  0  0
 16 17  1  0  0  0  0
 17 18  2  0  0  0  0
 18 19  1  0  0  0  0
 19 20  1  0  0  0  0
 20 21  1  0  0  0  0
 19 22  2  0  0  0  0
 22 23  1  0  0  0  0
 23 16  2  0  0  0  0
  6 24  1  0  0  0  0
  6 25  1  0  0  0  0
  6 26  1  0  0  0  0
  3 27  1  0  0  0  0
  4 28  1  0  0  0  0
  4 29  1  0  0  0  0
  7 30  1  0  0  0  0
  7 31  1  0  0  0  0
  8 32  1  0  0  0  0
  9 33  1  0  0  0  0
  9 34  1  0  0  0  0
  9 35  1  0  0  0  0
 10 36  1  0  0  0  0
 10 37  1  0  0  0  0
 11 38  1  0  0  0  0
 12 39  1  0  0  0  0
 15 40  1  0  0  0  0
 15 41  1  0  0  0  0
 15 42  1  0  0  0  0
 17 43  1  0  0  0  0
 18 44  1  0  0  0  0
 21 45  1  0  0  0  0
 21 46  1  0  0  0  0
 21 47  1  0  0  0  0
 22 48  1  0  0  0  0
 23 49  1  0  0  0  0
M  CHG  1   6   1
M  END
>  <result-rank>
6

>  <similarity>
0.950

>  <query-name>
LIG_A_1101_CCCC[R*]_2

>  <query-smiles>
O=C(NCCCC)[C@@H](NC(=O)C)Cc1ccc(O)cc1

>  <source>
REALspace_2019-12

>  <similarity-descriptor>
1.000;1.000;1.000;0.977;0.977;0.949;0.0;1.000;1.000;1.000;1.000;1.000;0.704;0.188

>  <similarity-descriptor-smiles>
c1ccccc1;O=C;N;CCC;CCC;C;;CC;N;C=O;C;CC;O;[NH3+].O.C

>  <reaction-name>
s_240690a

>  <reagent1-name>
16979978

>  <reagent1-smiles>
[R1*]NCC(N)(CO)C

>  <reagent2-name>
7408870

>  <reagent2-smiles>
[R1*]C(=O)CC(NC(=O)C)c1ccc(OC)cc1

$$$$
s_11a____10903210____16717356
          04022015093D 1   1.00000     0.00000     0
            
 48 48  0  0  0  0            999 V2000
   -0.3868    1.6571   -0.7943 O   0  0  0  0  0  0  0  0  0  0  0  0
    0.7075    1.7208   -0.3059 C   0  0  0  0  0  0  0  0  0  0  0  0
    1.6931    2.4433   -0.9252 N   0  0  0  0  0  0  0  0  0  0  0  0
    1.4102    3.1404   -2.1881 C   0  0  3  0  0  0  0  0  0  0  0  0
    2.3295    2.6104   -3.2763 C   0  0  0  0  0  0  0  0  0  0  0  0
    3.0493    2.1954   -4.1283 C   0  0  0  0  0  0  0  0  0  0  0  0
    1.6455    4.6312   -2.0077 C   0  0  0  0  0  0  0  0  0  0  0  0
    1.3530    5.3520   -3.3135 C   0  0  0  0  0  0  0  0  0  0  0  0
    1.0000    1.0000    1.0000 C   0  0  3  0  0  0  0  0  0  0  0  0
    1.8487    1.8487    1.8487 N   0  0  0  0  0  0  0  0  0  0  0  0
    3.0831    1.4052    2.2442 C   0  0  0  0  0  0  0  0  0  0  0  0
    3.4716    0.3240    1.8978 O   0  0  0  0  0  0  0  0  0  0  0  0
    3.9607    2.2828    3.1218 C   0  0  0  0  0  0  0  0  0  0  0  0
    5.2236    1.5857    3.4047 N   0  0  0  0  0  0  0  0  0  0  0  0
    6.2255    1.5772    2.4703 C   0  0  0  0  0  0  0  0  0  0  0  0
    6.0722    2.1388    1.4210 O   0  0  0  0  0  0  0  0  0  0  0  0
    7.5314    0.8564    2.7629 C   0  0  0  0  0  0  0  0  0  0  0  0
   -0.3059    0.7075    1.7208 C   0  0  0  0  0  0  0  0  0  0  0  0
   -0.0133   -0.0134    3.0267 C   0  0  0  0  0  0  0  0  0  0  0  0
    0.1949    0.7274    4.1855 C   0  0  0  0  0  0  0  0  0  0  0  0
    0.4621    0.0721    5.3829 C   0  0  0  0  0  0  0  0  0  0  0  0
    0.5173   -1.3180    5.4060 C   0  0  0  0  0  0  0  0  0  0  0  0
    0.7767   -1.9580    6.5658 O   0  0  0  0  0  0  0  0  0  0  0  0
    0.3102   -2.0634    4.2499 C   0  0  0  0  0  0  0  0  0  0  0  0
    0.0429   -1.4030    3.0554 C   0  0  0  0  0  0  0  0  0  0  0  0
    2.6049    2.4964   -0.5181 H   0  0  0  0  0  0  0  0  0  0  0  0
    0.4581    2.9825   -2.4500 H   0  0  0  0  0  0  0  0  0  0  0  0
    3.6541    1.8467   -4.8443 H   0  0  0  0  0  0  0  0  0  0  0  0
    2.5976    4.7890   -1.7458 H   0  0  0  0  0  0  0  0  0  0  0  0
    1.0406    4.9798   -1.2917 H   0  0  0  0  0  0  0  0  0  0  0  0
    1.5078    6.3327   -3.1948 H   0  0  0  0  0  0  0  0  0  0  0  0
    1.9578    5.0033   -4.0295 H   0  0  0  0  0  0  0  0  0  0  0  0
    0.4009    5.1941   -3.5754 H   0  0  0  0  0  0  0  0  0  0  0  0
    1.4742    0.1409    0.8075 H   0  0  0  0  0  0  0  0  0  0  0  0
    1.5250    2.7498    2.1374 H   0  0  0  0  0  0  0  0  0  0  0  0
    4.1532    3.1419    2.6475 H   0  0  0  0  0  0  0  0  0  0  0  0
    3.4865    2.4753    3.9809 H   0  0  0  0  0  0  0  0  0  0  0  0
    5.3514    1.1177    4.2791 H   0  0  0  0  0  0  0  0  0  0  0  0
    7.4892    0.4469    3.6742 H   0  0  0  0  0  0  0  0  0  0  0  0
    7.6760    0.1389    2.0815 H   0  0  0  0  0  0  0  0  0  0  0  0
    8.2881    1.5091    2.7253 H   0  0  0  0  0  0  0  0  0  0  0  0
   -0.7801    1.5666    1.9133 H   0  0  0  0  0  0  0  0  0  0  0  0
   -0.8832    0.1301    1.1435 H   0  0  0  0  0  0  0  0  0  0  0  0
    0.1526    1.7261    4.1579 H   0  0  0  0  0  0  0  0  0  0  0  0
    0.6134    0.5962    6.2210 H   0  0  0  0  0  0  0  0  0  0  0  0
    0.8174   -2.9569    6.5874 H   0  0  0  0  0  0  0  0  0  0  0  0
    0.3529   -3.0622    4.2773 H   0  0  0  0  0  0  0  0  0  0  0  0
   -0.1088   -1.9271    2.2174 H   0  0  0  0  0  0  0  0  0  0  0  0
  1  2  2  0  0  0  0
  2  3  1  0  0  0  0
  3  4  1  0  0  0  0
  4  5  1  0  0  0  0
  5  6  3  0  0  0  0
  4  7  1  0  0  0  0
  7  8  1  0  0  0  0
  2  9  1  0  0  0  0
  9 10  1  0  0  0  0
 10 11  1  0  0  0  0
 11 12  2  0  0  0  0
 11 13  1  0  0  0  0
 13 14  1  0  0  0  0
 14 15  1  0  0  0  0
 15 16  2  0  0  0  0
 15 17  1  0  0  0  0
  9 18  1  0  0  0  0
 18 19  1  0  0  0  0
 19 20  1  0  0  0  0
 20 21  2  0  0  0  0
 21 22  1  0  0  0  0
 22 23  1  0  0  0  0
 22 24  2  0  0  0  0
 24 25  1  0  0  0  0
 25 19  2  0  0  0  0
  3 26  1  0  0  0  0
  4 27  1  0  0  0  0
  6 28  1  0  0  0  0
  7 29  1  0  0  0  0
  7 30  1  0  0  0  0
  8 31  1  0  0  0  0
  8 32  1  0  0  0  0
  8 33  1  0  0  0  0
  9 34  1  0  0  0  0
 10 35  1  0  0  0  0
 13 36  1  0  0  0  0
 13 37  1  0  0  0  0
 14 38  1  0  0  0  0
 17 39  1  0  0  0  0
 17 40  1  0  0  0  0
 17 41  1  0  0  0  0
 18 42  1  0  0  0  0
 18 43  1  0  0  0  0
 20 44  1  0  0  0  0
 21 45  1  0  0  0  0
 23 46  1  0  0  0  0
 24 47  1  0  0  0  0
 25 48  1  0  0  0  0
M  END
>  <result-rank>
7

>  <similarity>
0.950

>  <query-name>
LIG_A_1101_CCCC[R*]_2

>  <query-smiles>
O=C(NCCCC)[C@@H](NC(=O)C)Cc1ccc(O)cc1

>  <source>
REALspace_2019-12

>  <similarity-descriptor>
1.000;1.000;1.000;0.990;0.990;0.949;0.0;1.000;1.000;1.000;0.955;1.000;1.000;0.235

>  <similarity-descriptor-smiles>
c1ccccc1;O=C;N;C(C)C;C(C)C;C;;C;N;C=O;C;C;O;C.N.C=O.C

>  <reaction-name>
s_11a

>  <reagent1-name>
10903210

>  <reagent1-smiles>
[R1*]NC(C#C)CC

>  <reagent2-name>
16717356

>  <reagent2-smiles>
[R1*]C(=O)C(NC(=O)CNC(=O)C)Cc1ccc(O)cc1

$$$$
s_22____57678____219891
          04022015093D 1   1.00000     0.00000     0
            
 40 40  0  0  0  0            999 V2000
    4.3356    3.7506   -0.8934 O   0  0  0  0  0  0  0  0  0  0  0  0
    5.0404    2.8242   -0.6018 C   0  0  0  0  0  0  0  0  0  0  0  0
    4.4855    1.6046   -0.3161 N   0  0  0  0  0  0  0  0  0  0  0  0
    3.0267    1.4309   -0.3667 C   0  0  3  0  0  0  0  0  0  0  0  0
    2.6784    0.3666   -1.3950 C   0  0  0  0  0  0  0  0  0  0  0  0
    3.1262   -0.9380   -1.2150 C   0  0  0  0  0  0  0  0  0  0  0  0
    2.8060   -1.9086   -2.1588 C   0  0  0  0  0  0  0  0  0  0  0  0
    2.0424   -1.5717   -3.2714 C   0  0  0  0  0  0  0  0  0  0  0  0
    1.6002   -0.2654   -3.4405 C   0  0  0  0  0  0  0  0  0  0  0  0
    1.9142    0.7144   -2.5044 C   0  0  0  0  0  0  0  0  0  0  0  0
    2.5200    1.0000    1.0000 C   0  0  0  0  0  0  0  0  0  0  0  0
    1.0000    1.0000    1.0000 C   0  0  0  0  0  0  0  0  0  0  0  0
    0.4000    1.0000   -0.0392 O   0  0  0  0  0  0  0  0  0  0  0  0
    0.3150    1.0000    2.1865 N   0  0  0  0  0  0  0  0  0  0  0  0
   -1.1550    1.0000    2.1865 C   0  0  3  0  0  0  0  0  0  0  0  0
   -1.6617   -0.2411    2.9030 C   0  0  0  0  0  0  0  0  0  0  0  0
   -3.1817   -0.2411    2.9030 C   0  0  0  0  0  0  0  0  0  0  0  0
   -1.6617    2.2411    2.9030 C   0  0  0  0  0  0  0  0  0  0  0  0
    6.4000    2.9861   -0.5546 N   0  0  0  0  0  0  0  0  0  0  0  0
    5.0728    0.8326   -0.0731 H   0  0  0  0  0  0  0  0  0  0  0  0
    2.5967    2.2963   -0.6240 H   0  0  0  0  0  0  0  0  0  0  0  0
    3.6742   -1.1764   -0.4132 H   0  0  0  0  0  0  0  0  0  0  0  0
    3.1249   -2.8486   -2.0372 H   0  0  0  0  0  0  0  0  0  0  0  0
    1.8117   -2.2695   -3.9495 H   0  0  0  0  0  0  0  0  0  0  0  0
    1.0515   -0.0276   -4.2421 H   0  0  0  0  0  0  0  0  0  0  0  0
    1.5955    1.6543   -2.6269 H   0  0  0  0  0  0  0  0  0  0  0  0
    2.8533    0.0795    1.2041 H   0  0  0  0  0  0  0  0  0  0  0  0
    2.8533    1.6370    1.6951 H   0  0  0  0  0  0  0  0  0  0  0  0
    0.8150    1.0000    3.0525 H   0  0  0  0  0  0  0  0  0  0  0  0
   -1.4883    1.0000    1.2436 H   0  0  0  0  0  0  0  0  0  0  0  0
   -1.3283   -0.2411    3.8458 H   0  0  0  0  0  0  0  0  0  0  0  0
   -1.3283   -1.0576    2.4316 H   0  0  0  0  0  0  0  0  0  0  0  0
   -3.5150   -1.0576    3.3744 H   0  0  0  0  0  0  0  0  0  0  0  0
   -3.5150    0.5754    3.3744 H   0  0  0  0  0  0  0  0  0  0  0  0
   -3.5150   -0.2411    1.9602 H   0  0  0  0  0  0  0  0  0  0  0  0
   -2.6617    2.2411    2.9030 H   0  0  0  0  0  0  0  0  0  0  0  0
   -1.3283    2.2411    3.8458 H   0  0  0  0  0  0  0  0  0  0  0  0
   -1.3283    3.0576    2.4316 H   0  0  0  0  0  0  0  0  0  0  0  0
    6.9873    2.2141   -0.3117 H   0  0  0  0  0  0  0  0  0  0  0  0
    6.8051    3.8763   -0.7632 H   0  0  0  0  0  0  0  0  0  0  0  0
  1  2  2  0  0  0  0
  2  3  1  0  0  0  0
  3  4  1  0  0  0  0
  4  5  1  0  0  0  0
  5  6  1  0  0  0  0
  6  7  2  0  0  0  0
  7  8  1  0  0  0  0
  8  9  2  0  0  0  0
  9 10  1  0  0  0  0
 10  5  2  0  0  0  0
  4 11  1  0  0  0  0
 11 12  1  0  0  0  0
 12 13  2  0  0  0  0
 12 14  1  0  0  0  0
 14 15  1  0  0  0  0
 15 16  1  0  0  0  0
 16 17  1  0  0  0  0
 15 18  1  0  0  0  0
  2 19  1  0  0  0  0
  3 20  1  0  0  0  0
  4 21  1  0  0  0  0
  6 22  1  0  0  0  0
  7 23  1  0  0  0  0
  8 24  1  0  0  0  0
  9 25  1  0  0  0  0
 10 26  1  0  0  0  0
 11 27  1  0  0  0  0
 11 28  1  0  0  0  0
 14 29  1  0  0  0  0
 15 30  1  0  0  0  0
 16 31  1  0  0  0  0
 16 32  1  0  0  0  0
 17 33  1  0  0  0  0
 17 34  1  0  0  0  0
 17 35  1  0  0  0  0
 18 36  1  0  0  0  0
 18 37  1  0  0  0  0
 18 38  1  0  0  0  0
 19 39  1  0  0  0  0
 19 40  1  0  0  0  0
M  END
>  <result-rank>
8

>  <similarity>
0.950

>  <query-name>
LIG_A_1101_CCCC[R*]_2

>  <query-smiles>
O=C(NCCCC)[C@@H](NC(=O)C)Cc1ccc(O)cc1

>  <source>
REALspace_2019-12

>  <similarity-descriptor>
0.960;1.000;1.000;0.998;0.998;1.000;1.000;1.000;1.000;0.840;0.840;1.000;0.0;0.083

>  <similarity-descriptor-smiles>
c1ccccc1;C=O;N;CC;CC;C;C;CC;N;O=C;O=C;CC;;N

>  <reaction-name>
s_22

>  <reagent1-name>
57678

>  <reagent1-smiles>
[R1*]NC(CC)C

>  <reagent2-name>
219891

>  <reagent2-smiles>
[R1*]C(=O)CC(NC(=O)N)c1ccccc1

$$$$
s_11a____8846298____217443
          04022015093D 1   1.00000     0.00000     0
            
 45 45  0  0  0  0            999 V2000
    0.4000    1.0000   -0.0392 O   0  0  0  0  0  0  0  0  0  0  0  0
    1.0000    1.0000    1.0000 C   0  0  0  0  0  0  0  0  0  0  0  0
    0.3150    1.0000    2.1865 N   0  0  0  0  0  0  0  0  0  0  0  0
   -1.1550    1.0000    2.1865 C   0  0  3  0  0  0  0  0  0  0  0  0
   -1.6617    2.2411    2.9030 C   0  0  0  0  0  0  0  0  0  0  0  0
   -2.0417    3.1719    3.4404 N   0  0  0  0  0  0  0  0  0  0  0  0
   -1.6617   -0.2411    2.9030 C   0  0  0  0  0  0  0  0  0  0  0  0
   -3.1817   -0.2411    2.9030 C   0  0  0  0  0  0  0  0  0  0  0  0
   -1.1550   -1.4821    2.1865 C   0  0  0  0  0  0  0  0  0  0  0  0
    2.5200    1.0000    1.0000 C   0  0  0  0  0  0  0  0  0  0  0  0
    3.0267    1.4309   -0.3667 C   0  0  3  0  0  0  0  0  0  0  0  0
    4.3972    1.9473   -0.2408 N   0  0  0  0  0  0  0  0  0  0  0  0
    4.6793    3.2374   -0.6054 C   0  0  0  0  0  0  0  0  0  0  0  0
    3.8076    3.9459   -1.0276 O   0  0  0  0  0  0  0  0  0  0  0  0
    6.0965    3.7714   -0.4752 C   0  0  0  0  0  0  0  0  0  0  0  0
    3.0192    0.2382   -1.3091 C   0  0  0  0  0  0  0  0  0  0  0  0
    3.7377   -0.9062   -0.9785 C   0  0  0  0  0  0  0  0  0  0  0  0
    3.7282   -1.9942   -1.8446 C   0  0  0  0  0  0  0  0  0  0  0  0
    3.0009   -1.9261   -3.0288 C   0  0  0  0  0  0  0  0  0  0  0  0
    2.2805   -0.7818   -3.3575 C   0  0  0  0  0  0  0  0  0  0  0  0
    2.2911    0.3070   -2.4920 C   0  0  0  0  0  0  0  0  0  0  0  0
    2.9956   -3.1182   -3.9722 C   0  0  0  0  0  0  0  0  0  0  0  0
    0.8150    1.0000    3.0525 H   0  0  0  0  0  0  0  0  0  0  0  0
   -1.4883    1.0000    1.2436 H   0  0  0  0  0  0  0  0  0  0  0  0
   -1.3283   -0.2411    3.8458 H   0  0  0  0  0  0  0  0  0  0  0  0
   -3.5150   -1.0576    3.3744 H   0  0  0  0  0  0  0  0  0  0  0  0
   -3.5150    0.5754    3.3744 H   0  0  0  0  0  0  0  0  0  0  0  0
   -3.5150   -0.2411    1.9602 H   0  0  0  0  0  0  0  0  0  0  0  0
   -1.4883   -2.2986    2.6579 H   0  0  0  0  0  0  0  0  0  0  0  0
   -1.4883   -1.4821    1.2436 H   0  0  0  0  0  0  0  0  0  0  0  0
   -0.1550   -1.4821    2.1865 H   0  0  0  0  0  0  0  0  0  0  0  0
    2.8533    0.0795    1.2041 H   0  0  0  0  0  0  0  0  0  0  0  0
    2.8533    1.6370    1.6951 H   0  0  0  0  0  0  0  0  0  0  0  0
    2.4326    2.1478   -0.7317 H   0  0  0  0  0  0  0  0  0  0  0  0
    5.1236    1.3569    0.1110 H   0  0  0  0  0  0  0  0  0  0  0  0
    6.6906    3.0545   -0.1102 H   0  0  0  0  0  0  0  0  0  0  0  0
    6.4298    4.0549   -1.3743 H   0  0  0  0  0  0  0  0  0  0  0  0
    6.1014    4.5560    0.1448 H   0  0  0  0  0  0  0  0  0  0  0  0
    4.2569   -0.9462   -0.1248 H   0  0  0  0  0  0  0  0  0  0  0  0
    4.2416   -2.8217   -1.6174 H   0  0  0  0  0  0  0  0  0  0  0  0
    1.7590   -0.7425   -4.2099 H   0  0  0  0  0  0  0  0  0  0  0  0
    1.7780    1.1347   -2.7190 H   0  0  0  0  0  0  0  0  0  0  0  0
    2.4304   -2.9092   -4.7703 H   0  0  0  0  0  0  0  0  0  0  0  0
    3.9307   -3.3134   -4.2680 H   0  0  0  0  0  0  0  0  0  0  0  0
    2.6223   -3.9161   -3.4990 H   0  0  0  0  0  0  0  0  0  0  0  0
  1  2  2  0  0  0  0
  2  3  1  0  0  0  0
  3  4  1  0  0  0  0
  4  5  1  0  0  0  0
  5  6  3  0  0  0  0
  4  7  1  0  0  0  0
  7  8  1  0  0  0  0
  7  9  1  0  0  0  0
  2 10  1  0  0  0  0
 10 11  1  0  0  0  0
 11 12  1  0  0  0  0
 12 13  1  0  0  0  0
 13 14  2  0  0  0  0
 13 15  1  0  0  0  0
 11 16  1  0  0  0  0
 16 17  1  0  0  0  0
 17 18  2  0  0  0  0
 18 19  1  0  0  0  0
 19 20  2  0  0  0  0
 20 21  1  0  0  0  0
 21 16  2  0  0  0  0
 19 22  1  0  0  0  0
  3 23  1  0  0  0  0
  4 24  1  0  0  0  0
  7 25  1  0  0  0  0
  8 26  1  0  0  0  0
  8 27  1  0  0  0  0
  8 28  1  0  0  0  0
  9 29  1  0  0  0  0
  9 30  1  0  0  0  0
  9 31  1  0  0  0  0
 10 32  1  0  0  0  0
 10 33  1  0  0  0  0
 11 34  1  0  0  0  0
 12 35  1  0  0  0  0
 15 36  1  0  0  0  0
 15 37  1  0  0  0  0
 15 38  1  0  0  0  0
 17 39  1  0  0  0  0
 18 40  1  0  0  0  0
 20 41  1  0  0  0  0
 21 42  1  0  0  0  0
 22 43  1  0  0  0  0
 22 44  1  0  0  0  0
 22 45  1  0  0  0  0
M  END
>  <result-rank>
9

>  <similarity>
0.950

>  <query-name>
LIG_A_1101_CCCC[R*]_2

>  <query-smiles>
O=C(NCCCC)[C@@H](NC(=O)C)Cc1ccc(O)cc1

>  <source>
REALspace_2019-12

>  <similarity-descriptor>
0.927;1.000;1.000;0.930;0.998;0.998;1.000;1.000;1.000;1.000;1.000;1.000;0.0;0.071

>  <similarity-descriptor-smiles>
c1ccc(cc1)C;O=C;N;C;CC;CC;C;CC;N;C=O;C;CC;;C#N

>  <reaction-name>
s_11a

>  <reagent1-name>
8846298

>  <reagent1-smiles>
[R1*]NC(C#N)C(C)C

>  <reagent2-name>
217443

>  <reagent2-smiles>
[R1*]C(=O)CC(NC(=O)C)c1ccc(cc1)C

$$$$
s_22____6406230____17057108
          04022015093D 1   1.00000     0.00000     0
            
 55 55  0  0  0  0            999 V2000
    0.3056    2.8514   -0.2902 O   0  0  0  0  0  0  0  0  0  0  0  0
    0.7075    1.7208   -0.3059 C   0  0  0  0  0  0  0  0  0  0  0  0
    0.9026    1.0797   -1.5008 N   0  0  0  0  0  0  0  0  0  0  0  0
    0.3226    1.6309   -2.7339 C   0  0  0  0  0  0  0  0  0  0  0  0
   -0.9998    0.9402   -3.0247 C   0  0  0  0  0  0  0  0  0  0  0  0
   -1.7113    0.7497   -1.8106 O   0  0  0  0  0  0  0  0  0  0  0  0
   -1.8254    1.8021   -3.9659 C   0  0  0  0  0  0  0  0  0  0  0  0
   -0.7350   -0.4085   -3.6737 C   0  0  0  0  0  0  0  0  0  0  0  0
    1.6920   -0.1594   -1.5498 C   0  0  0  0  0  0  0  0  0  0  0  0
    1.0000    1.0000    1.0000 C   0  0  3  0  0  0  0  0  0  0  0  0
    1.8487    1.8487    1.8487 N   0  0  0  0  0  0  0  0  0  0  0  0
    3.0831    1.4052    2.2442 C   0  0  0  0  0  0  0  0  0  0  0  0
    3.5091    0.3643    1.8258 O   0  0  0  0  0  0  0  0  0  0  0  0
    3.9131    2.2317    3.2129 C   0  0  0  0  0  0  0  0  0  0  0  0
    5.0002    1.3600    3.8203 C   0  0  0  0  0  0  0  0  0  0  0  0
    5.8302    2.1864    4.7890 C   0  0  0  0  0  0  0  0  0  0  0  0
    4.3616    0.1981    4.5636 C   0  0  0  0  0  0  0  0  0  0  0  0
   -0.3059    0.7075    1.7208 C   0  0  0  0  0  0  0  0  0  0  0  0
   -0.1561   -0.5602    2.5461 C   0  0  0  0  0  0  0  0  0  0  0  0
   -0.4624   -1.7901    1.9731 C   0  0  0  0  0  0  0  0  0  0  0  0
   -0.3262   -2.9527    2.7243 C   0  0  0  0  0  0  0  0  0  0  0  0
    0.1159   -2.8702    4.0409 C   0  0  0  0  0  0  0  0  0  0  0  0
    0.2492   -3.9960    4.7736 O   0  0  0  0  0  0  0  0  0  0  0  0
    0.4233   -1.6427    4.6189 C   0  0  0  0  0  0  0  0  0  0  0  0
    0.2856   -0.4834    3.8630 C   0  0  0  0  0  0  0  0  0  0  0  0
    0.9526    1.4789   -3.4955 H   0  0  0  0  0  0  0  0  0  0  0  0
    0.1681    2.6123   -2.6199 H   0  0  0  0  0  0  0  0  0  0  0  0
   -2.5813    0.2953   -2.0019 H   0  0  0  0  0  0  0  0  0  0  0  0
   -1.3244    1.9362   -4.8208 H   0  0  0  0  0  0  0  0  0  0  0  0
   -2.6954    1.3476   -4.1572 H   0  0  0  0  0  0  0  0  0  0  0  0
   -1.9996    2.6894   -3.5389 H   0  0  0  0  0  0  0  0  0  0  0  0
   -0.2340   -0.2744   -4.5287 H   0  0  0  0  0  0  0  0  0  0  0  0
   -0.1918   -0.9755   -3.0545 H   0  0  0  0  0  0  0  0  0  0  0  0
   -1.6050   -0.8629   -3.8650 H   0  0  0  0  0  0  0  0  0  0  0  0
    1.7338   -0.4910   -2.4923 H   0  0  0  0  0  0  0  0  0  0  0  0
    2.6181    0.0221   -1.2189 H   0  0  0  0  0  0  0  0  0  0  0  0
    1.2612   -0.8522   -0.9714 H   0  0  0  0  0  0  0  0  0  0  0  0
    1.4742    0.1409    0.8075 H   0  0  0  0  0  0  0  0  0  0  0  0
    1.5250    2.7498    2.1374 H   0  0  0  0  0  0  0  0  0  0  0  0
    3.3239    2.5845    3.9398 H   0  0  0  0  0  0  0  0  0  0  0  0
    4.3333    2.9961    2.7239 H   0  0  0  0  0  0  0  0  0  0  0  0
    5.5894    1.0071    3.0934 H   0  0  0  0  0  0  0  0  0  0  0  0
    6.5453    1.6129    5.1886 H   0  0  0  0  0  0  0  0  0  0  0  0
    6.2503    2.9508    4.2999 H   0  0  0  0  0  0  0  0  0  0  0  0
    5.2409    2.5393    5.5158 H   0  0  0  0  0  0  0  0  0  0  0  0
    5.0767   -0.3754    4.9632 H   0  0  0  0  0  0  0  0  0  0  0  0
    3.7723    0.5509    5.2905 H   0  0  0  0  0  0  0  0  0  0  0  0
    3.8155   -0.3456    3.9263 H   0  0  0  0  0  0  0  0  0  0  0  0
   -0.5327    1.4727    2.3233 H   0  0  0  0  0  0  0  0  0  0  0  0
   -1.0367    0.5838    1.0495 H   0  0  0  0  0  0  0  0  0  0  0  0
   -0.7790   -1.8381    1.0258 H   0  0  0  0  0  0  0  0  0  0  0  0
   -0.5443   -3.8414    2.3210 H   0  0  0  0  0  0  0  0  0  0  0  0
    0.5666   -3.9418    5.7203 H   0  0  0  0  0  0  0  0  0  0  0  0
    0.7394   -1.5945    5.5664 H   0  0  0  0  0  0  0  0  0  0  0  0
    0.5041    0.4053    4.2662 H   0  0  0  0  0  0  0  0  0  0  0  0
  1  2  2  0  0  0  0
  2  3  1  0  0  0  0
  3  4  1  0  0  0  0
  4  5  1  0  0  0  0
  5  6  1  0  0  0  0
  5  7  1  0  0  0  0
  5  8  1  0  0  0  0
  3  9  1  0  0  0  0
  2 10  1  0  0  0  0
 10 11  1  0  0  0  0
 11 12  1  0  0  0  0
 12 13  2  0  0  0  0
 12 14  1  0  0  0  0
 14 15  1  0  0  0  0
 15 16  1  0  0  0  0
 15 17  1  0  0  0  0
 10 18  1  0  0  0  0
 18 19  1  0  0  0  0
 19 20  1  0  0  0  0
 20 21  2  0  0  0  0
 21 22  1  0  0  0  0
 22 23  1  0  0  0  0
 22 24  2  0  0  0  0
 24 25  1  0  0  0  0
 25 19  2  0  0  0  0
  4 26  1  0  0  0  0
  4 27  1  0  0  0  0
  6 28  1  0  0  0  0
  7 29  1  0  0  0  0
  7 30  1  0  0  0  0
  7 31  1  0  0  0  0
  8 32  1  0  0  0  0
  8 33  1  0  0  0  0
  8 34  1  0  0  0  0
  9 35  1  0  0  0  0
  9 36  1  0  0  0  0
  9 37  1  0  0  0  0
 10 38  1  0  0  0  0
 11 39  1  0  0  0  0
 14 40  1  0  0  0  0
 14 41  1  0  0  0  0
 15 42  1  0  0  0  0
 16 43  1  0  0  0  0
 16 44  1  0  0  0  0
 16 45  1  0  0  0  0
 17 46  1  0  0  0  0
 17 47  1  0  0  0  0
 17 48  1  0  0  0  0
 18 49  1  0  0  0  0
 18 50  1  0  0  0  0
 20 51  1  0  0  0  0
 21 52  1  0  0  0  0
 23 53  1  0  0  0  0
 24 54  1  0  0  0  0
 25 55  1  0  0  0  0
M  END
>  <result-rank>
10

>  <similarity>
0.950

>  <query-name>
LIG_A_1101_CCCC[R*]_2

>  <query-smiles>
O=C(NCCCC)[C@@H](NC(=O)C)Cc1ccc(O)cc1

>  <source>
REALspace_2019-12

>  <similarity-descriptor>
1.000;0.852;0.852;0.993;0.998;0.998;1.000;1.000;1.000;0.973;0.994;1.000;1.000;0.222

>  <similarity-descriptor-smiles>
c1ccccc1;C=O;C=O;C;CC;CC;C;CN;CN;O=CN;CC;C;O;O.C.C.C

>  <reaction-name>
s_22

>  <reagent1-name>
6406230

>  <reagent1-smiles>
[R1*]N(CC(O)(C)C)C

>  <reagent2-name>
17057108

>  <reagent2-smiles>
[R1*]C(=O)C(NC(=O)CC(C)C)Cc1ccc(O)cc1

$$$$
s_527a____9051020____12624300
          04022015093D 1   1.00000     0.00000     0
            
 43 44  0  0  0  0            999 V2000
   -3.2980    2.2225    6.9961 Br  0  0  0  0  0  0  0  0  0  0  0  0
   -2.5957    0.9216    5.7095 C   0  0  0  0  0  0  0  0  0  0  0  0
   -2.1665    1.3534    4.4593 C   0  0  0  0  0  0  0  0  0  0  0  0
   -1.6712    0.4174    3.5567 C   0  0  0  0  0  0  0  0  0  0  0  0
   -1.6020   -0.9312    3.8893 C   0  0  0  0  0  0  0  0  0  0  0  0
   -2.0373   -1.3417    5.1451 C   0  0  0  0  0  0  0  0  0  0  0  0
   -2.5358   -0.4224    6.0622 C   0  0  0  0  0  0  0  0  0  0  0  0
   -1.2007    0.8853    2.1890 C   0  0  3  0  0  0  0  0  0  0  0  0
   -1.6203   -0.0854    1.1679 N   0  0  0  0  0  0  0  0  0  0  0  0
   -2.4417    0.3086    0.1447 C   0  0  0  0  0  0  0  0  0  0  0  0
   -2.8186    1.4461    0.0820 O   0  0  0  0  0  0  0  0  0  0  0  0
   -2.8756   -0.6952   -0.9111 C   0  0  0  0  0  0  0  0  0  0  0  0
    0.3150    1.0000    2.1865 C   0  0  0  0  0  0  0  0  0  0  0  0
    0.9116    1.0906    3.2237 O   0  0  0  0  0  0  0  0  0  0  0  0
    1.0000    1.0000    1.0000 N   0  0  0  0  0  0  0  0  0  0  0  0
    2.4700    1.0000    1.0000 C   0  0  0  0  0  0  0  0  0  0  0  0
    2.9765   -0.4273    1.1249 C   0  0  0  0  0  0  0  0  0  0  0  0
    2.4595   -1.4812    0.1583 C   0  0  0  0  0  0  0  0  0  0  0  0
    2.9161   -1.1432   -1.2516 C   0  0  0  0  0  0  0  0  0  0  0  0
    2.4333   -2.1274   -2.1542 O   0  0  0  0  0  0  0  0  0  0  0  0
    3.2573   -0.8998    2.5231 C   0  0  0  0  0  0  0  0  0  0  0  0
    4.3948   -0.5939    1.5914 C   0  0  0  0  0  0  0  0  0  0  0  0
   -2.2131    2.3214    4.2127 H   0  0  0  0  0  0  0  0  0  0  0  0
   -1.2442   -1.5969    3.2345 H   0  0  0  0  0  0  0  0  0  0  0  0
   -1.9912   -2.3097    5.3917 H   0  0  0  0  0  0  0  0  0  0  0  0
   -2.8470   -0.7239    6.9635 H   0  0  0  0  0  0  0  0  0  0  0  0
   -1.6029    1.7779    1.9855 H   0  0  0  0  0  0  0  0  0  0  0  0
   -1.3062   -1.0334    1.2202 H   0  0  0  0  0  0  0  0  0  0  0  0
   -2.4734   -1.5878   -0.7076 H   0  0  0  0  0  0  0  0  0  0  0  0
   -3.8727   -0.7707   -0.9094 H   0  0  0  0  0  0  0  0  0  0  0  0
   -2.5661   -0.3874   -1.8108 H   0  0  0  0  0  0  0  0  0  0  0  0
    0.5000    1.0000    0.1340 H   0  0  0  0  0  0  0  0  0  0  0  0
    2.8033    1.5408    1.7723 H   0  0  0  0  0  0  0  0  0  0  0  0
    2.8033    1.3984    0.1455 H   0  0  0  0  0  0  0  0  0  0  0  0
    1.4602   -1.5005    0.1894 H   0  0  0  0  0  0  0  0  0  0  0  0
    2.8185   -2.3774    0.4190 H   0  0  0  0  0  0  0  0  0  0  0  0
    2.5571   -0.2470   -1.5124 H   0  0  0  0  0  0  0  0  0  0  0  0
    3.9154   -1.1240   -1.2827 H   0  0  0  0  0  0  0  0  0  0  0  0
    2.7336   -1.9050   -3.0818 H   0  0  0  0  0  0  0  0  0  0  0  0
    3.0619   -1.8463    2.7796 H   0  0  0  0  0  0  0  0  0  0  0  0
    3.0723   -0.2987    3.3005 H   0  0  0  0  0  0  0  0  0  0  0  0
    4.9672    0.2109    1.7486 H   0  0  0  0  0  0  0  0  0  0  0  0
    4.9568   -1.3368    1.2277 H   0  0  0  0  0  0  0  0  0  0  0  0
  1  2  1  0  0  0  0
  2  3  1  0  0  0  0
  3  4  2  0  0  0  0
  4  5  1  0  0  0  0
  5  6  2  0  0  0  0
  6  7  1  0  0  0  0
  7  2  2  0  0  0  0
  4  8  1  0  0  0  0
  8  9  1  0  0  0  0
  9 10  1  0  0  0  0
 10 11  2  0  0  0  0
 10 12  1  0  0  0  0
  8 13  1  0  0  0  0
 13 14  2  0  0  0  0
 13 15  1  0  0  0  0
 15 16  1  0  0  0  0
 16 17  1  0  0  0  0
 17 18  1  0  0  0  0
 18 19  1  0  0  0  0
 19 20  1  0  0  0  0
 17 21  1  0  0  0  0
 21 22  1  0  0  0  0
 22 17  1  0  0  0  0
  3 23  1  0  0  0  0
  5 24  1  0  0  0  0
  6 25  1  0  0  0  0
  7 26  1  0  0  0  0
  8 27  1  0  0  0  0
  9 28  1  0  0  0  0
 12 29  1  0  0  0  0
 12 30  1  0  0  0  0
 12 31  1  0  0  0  0
 15 32  1  0  0  0  0
 16 33  1  0  0  0  0
 16 34  1  0  0  0  0
 18 35  1  0  0  0  0
 18 36  1  0  0  0  0
 19 37  1  0  0  0  0
 19 38  1  0  0  0  0
 20 39  1  0  0  0  0
 21 40  1  0  0  0  0
 21 41  1  0  0  0  0
 22 42  1  0  0  0  0
 22 43  1  0  0  0  0
M  END
>  <result-rank>
11

>  <similarity>
0.950

>  <query-name>
LIG_A_1101_CCCC[R*]_2

>  <query-smiles>
O=C(NCCCC)[C@@H](NC(=O)C)Cc1ccc(O)cc1

>  <source>
REALspace_2019-12

>  <similarity-descriptor>
0.969;1.000;1.000;1.000;0.888;0.888;0.949;1.000;1.000;1.000;1.000;0.969;0.0;0.167

>  <similarity-descriptor-smiles>
Brc1ccccc1;C=O;N;C;C1CC1;C1CC1;C;C;N;C=O;C;Brc1ccccc1;;C.O

>  <reaction-name>
s_527a

>  <reagent1-name>
9051020

>  <reagent1-smiles>
[R1*]NCC1(CCO)CC1

>  <reagent2-name>
12624300

>  <reagent2-smiles>
[R1*]C(=O)C(NC(=O)C)c1cc(Br)ccc1

$$$$
s_512____214534____9866152
          04022015093D 1   1.00000     0.00000     0
            
 43 43  0  0  0  0            999 V2000
    4.4099    2.9974    4.6244 S   0  0  0  0  0  0  0  0  0  0  0  0
    4.4972    2.3135    3.0679 C   0  0  0  0  0  0  0  0  0  0  0  0
    3.3584    2.7120    2.4334 C   0  0  0  0  0  0  0  0  0  0  0  0
    2.4929    3.5219    3.2164 C   0  0  0  0  0  0  0  0  0  0  0  0
    2.9116    3.8003    4.4823 C   0  0  0  0  0  0  0  0  0  0  0  0
    3.1050    2.2731    1.0000 C   0  0  0  0  0  0  0  0  0  0  0  0
    2.3700    1.0000    1.0000 N   0  0  0  0  0  0  0  0  0  0  0  0
    1.0000    1.0000    1.0000 C   0  0  0  0  0  0  0  0  0  0  0  0
    0.4000   -0.0392    1.0000 O   0  0  0  0  0  0  0  0  0  0  0  0
    0.3150    2.1865    1.0000 N   0  0  0  0  0  0  0  0  0  0  0  0
   -1.1550    2.1865    1.0000 C   0  0  0  0  0  0  0  0  0  0  0  0
   -1.6617    2.1865    2.4331 C   0  0  0  0  0  0  0  0  0  0  0  0
   -3.1817    2.1865    2.4331 C   0  0  0  0  0  0  0  0  0  0  0  0
   -3.6883    2.1865    3.8661 C   0  0  0  0  0  0  0  0  0  0  0  0
    3.1050   -0.2731    1.0000 C   0  0  0  0  0  0  0  0  0  0  0  0
    3.3583   -0.7118   -0.4331 C   0  0  0  0  0  0  0  0  0  0  0  0
    4.0933   -1.9849   -0.4331 N   0  0  0  0  0  0  0  0  0  0  0  0
    3.4083   -3.1714   -0.4331 C   0  0  0  0  0  0  0  0  0  0  0  0
    2.2083   -3.1714   -0.4331 O   0  0  0  0  0  0  0  0  0  0  0  0
    4.1683   -4.4877   -0.4331 C   0  0  0  0  0  0  0  0  0  0  0  0
    5.2287    1.7409    2.6976 H   0  0  0  0  0  0  0  0  0  0  0  0
    1.6256    3.8679    2.8586 H   0  0  0  0  0  0  0  0  0  0  0  0
    2.4450    4.3520    5.1737 H   0  0  0  0  0  0  0  0  0  0  0  0
    2.5646    2.9700    0.5286 H   0  0  0  0  0  0  0  0  0  0  0  0
    3.9788    2.1535    0.5286 H   0  0  0  0  0  0  0  0  0  0  0  0
    0.8150    3.0525    1.0000 H   0  0  0  0  0  0  0  0  0  0  0  0
   -1.4883    1.3700    0.5286 H   0  0  0  0  0  0  0  0  0  0  0  0
   -1.4883    3.0030    0.5286 H   0  0  0  0  0  0  0  0  0  0  0  0
   -1.3283    3.0030    2.9045 H   0  0  0  0  0  0  0  0  0  0  0  0
   -1.3283    1.3700    2.9045 H   0  0  0  0  0  0  0  0  0  0  0  0
   -3.5150    1.3700    1.9617 H   0  0  0  0  0  0  0  0  0  0  0  0
   -3.5150    3.0030    1.9617 H   0  0  0  0  0  0  0  0  0  0  0  0
   -4.6883    2.1865    3.8661 H   0  0  0  0  0  0  0  0  0  0  0  0
   -3.3550    1.3700    4.3375 H   0  0  0  0  0  0  0  0  0  0  0  0
   -3.3550    3.0030    4.3375 H   0  0  0  0  0  0  0  0  0  0  0  0
    2.5646   -0.9700    1.4714 H   0  0  0  0  0  0  0  0  0  0  0  0
    3.9788   -0.1535    1.4714 H   0  0  0  0  0  0  0  0  0  0  0  0
    2.4846   -0.8314   -0.9045 H   0  0  0  0  0  0  0  0  0  0  0  0
    3.8988   -0.0149   -0.9045 H   0  0  0  0  0  0  0  0  0  0  0  0
    5.0933   -1.9849   -0.4331 H   0  0  0  0  0  0  0  0  0  0  0  0
    5.1515   -4.3050   -0.4331 H   0  0  0  0  0  0  0  0  0  0  0  0
    3.9268   -5.0121    0.3834 H   0  0  0  0  0  0  0  0  0  0  0  0
    3.9268   -5.0121   -1.2496 H   0  0  0  0  0  0  0  0  0  0  0  0
  1  2  1  0  0  0  0
  2  3  2  0  0  0  0
  3  4  1  0  0  0  0
  4  5  2  0  0  0  0
  5  1  1  0  0  0  0
  3  6  1  0  0  0  0
  6  7  1  0  0  0  0
  7  8  1  0  0  0  0
  8  9  2  0  0  0  0
  8 10  1  0  0  0  0
 10 11  1  0  0  0  0
 11 12  1  0  0  0  0
 12 13  1  0  0  0  0
 13 14  1  0  0  0  0
  7 15  1  0  0  0  0
 15 16  1  0  0  0  0
 16 17  1  0  0  0  0
 17 18  1  0  0  0  0
 18 19  2  0  0  0  0
 18 20  1  0  0  0  0
  2 21  1  0  0  0  0
  4 22  1  0  0  0  0
  5 23  1  0  0  0  0
  6 24  1  0  0  0  0
  6 25  1  0  0  0  0
 10 26  1  0  0  0  0
 11 27  1  0  0  0  0
 11 28  1  0  0  0  0
 12 29  1  0  0  0  0
 12 30  1  0  0  0  0
 13 31  1  0  0  0  0
 13 32  1  0  0  0  0
 14 33  1  0  0  0  0
 14 34  1  0  0  0  0
 14 35  1  0  0  0  0
 15 36  1  0  0  0  0
 15 37  1  0  0  0  0
 16 38  1  0  0  0  0
 16 39  1  0  0  0  0
 17 40  1  0  0  0  0
 20 41  1  0  0  0  0
 20 42  1  0  0  0  0
 20 43  1  0  0  0  0
M  END
>  <result-rank>
12

>  <similarity>
0.950

>  <query-name>
LIG_A_1101_CCCC[R*]_2

>  <query-smiles>
O=C(NCCCC)[C@@H](NC(=O)C)Cc1ccc(O)cc1

>  <source>
REALspace_2019-12

>  <similarity-descriptor>
0.882;0.995;1.000;1.000;1.000;1.000;1.000;0.952;1.000;1.000;1.000;0.952;0.0;0.0

>  <similarity-descriptor-smiles>
S1C=CC(=C1)C;C=O;N;C;C;C;C;NCC;N;C=O;C;NCC;;

>  <reaction-name>
s_512

>  <reagent1-name>
214534

>  <reagent1-smiles>
[R1*]C(=O)NCCCC

>  <reagent2-name>
9866152

>  <reagent2-smiles>
[R1*]N(CC1=CSC=C1)CCNC(=O)C

$$$$
s_22____5002572____12624298
          04022015093D 1   1.00000     0.00000     0
            
 39 39  0  0  0  0            999 V2000
   -4.9718    1.6148    2.2810 Br  0  0  0  0  0  0  0  0  0  0  0  0
   -3.5064    1.7632    0.9881 C   0  0  0  0  0  0  0  0  0  0  0  0
   -2.2091    1.9780    1.4403 C   0  0  0  0  0  0  0  0  0  0  0  0
   -1.1798    2.0818    0.5098 C   0  0  0  0  0  0  0  0  0  0  0  0
   -1.4333    1.9740   -0.8534 C   0  0  0  0  0  0  0  0  0  0  0  0
   -2.7384    1.7598   -1.2841 C   0  0  0  0  0  0  0  0  0  0  0  0
   -3.7819    1.6529   -0.3707 C   0  0  0  0  0  0  0  0  0  0  0  0
    0.2400    2.3164    1.0000 C   0  0  3  0  0  0  0  0  0  0  0  0
    0.9144    3.2716    0.1091 N   0  0  0  0  0  0  0  0  0  0  0  0
    1.3899    4.4555    0.6082 C   0  0  0  0  0  0  0  0  0  0  0  0
    1.2557    4.7128    1.7726 O   0  0  0  0  0  0  0  0  0  0  0  0
    2.0873    5.4432   -0.3129 C   0  0  0  0  0  0  0  0  0  0  0  0
    1.0000    1.0000    1.0000 C   0  0  0  0  0  0  0  0  0  0  0  0
    0.4000   -0.0392    1.0000 O   0  0  0  0  0  0  0  0  0  0  0  0
    2.3700    1.0000    1.0000 N   0  0  0  0  0  0  0  0  0  0  0  0
    3.1050   -0.2731    1.0000 C   0  0  3  0  0  0  0  0  0  0  0  0
    3.9789   -0.3536   -0.2411 C   0  0  0  0  0  0  0  0  0  0  0  0
    4.7389   -1.6699   -0.2411 C   0  0  0  0  0  0  0  0  0  0  0  0
    4.5764   -2.5143   -1.2161 C   0  0  0  0  0  0  0  0  0  0  0  0
    3.9789   -0.3536    2.2411 C   0  0  0  0  0  0  0  0  0  0  0  0
   -2.0189    2.0566    2.4189 H   0  0  0  0  0  0  0  0  0  0  0  0
   -0.6872    2.0495   -1.5151 H   0  0  0  0  0  0  0  0  0  0  0  0
   -2.9289    1.6816   -2.2627 H   0  0  0  0  0  0  0  0  0  0  0  0
   -4.7180    1.4988   -0.6868 H   0  0  0  0  0  0  0  0  0  0  0  0
    0.2151    2.6869    1.9285 H   0  0  0  0  0  0  0  0  0  0  0  0
    1.0262    3.0571   -0.8612 H   0  0  0  0  0  0  0  0  0  0  0  0
    2.1121    5.0727   -1.2414 H   0  0  0  0  0  0  0  0  0  0  0  0
    1.5873    6.3092   -0.3129 H   0  0  0  0  0  0  0  0  0  0  0  0
    3.0212    5.5975    0.0095 H   0  0  0  0  0  0  0  0  0  0  0  0
    2.8700    1.8660    1.0000 H   0  0  0  0  0  0  0  0  0  0  0  0
    2.4552   -1.0331    1.0000 H   0  0  0  0  0  0  0  0  0  0  0  0
    3.4040   -0.3006   -1.0576 H   0  0  0  0  0  0  0  0  0  0  0  0
    4.6287    0.4065   -0.2411 H   0  0  0  0  0  0  0  0  0  0  0  0
    5.3639   -1.8864    0.5089 H   0  0  0  0  0  0  0  0  0  0  0  0
    5.0764   -3.3803   -1.2161 H   0  0  0  0  0  0  0  0  0  0  0  0
    3.9514   -2.2978   -1.9661 H   0  0  0  0  0  0  0  0  0  0  0  0
    4.4789   -1.2196    2.2411 H   0  0  0  0  0  0  0  0  0  0  0  0
    4.6287    0.4065    2.2411 H   0  0  0  0  0  0  0  0  0  0  0  0
    3.4040   -0.3006    3.0576 H   0  0  0  0  0  0  0  0  0  0  0  0
  1  2  1  0  0  0  0
  2  3  1  0  0  0  0
  3  4  2  0  0  0  0
  4  5  1  0  0  0  0
  5  6  2  0  0  0  0
  6  7  1  0  0  0  0
  7  2  2  0  0  0  0
  4  8  1  0  0  0  0
  8  9  1  0  0  0  0
  9 10  1  0  0  0  0
 10 11  2  0  0  0  0
 10 12  1  0  0  0  0
  8 13  1  0  0  0  0
 13 14  2  0  0  0  0
 13 15  1  0  0  0  0
 15 16  1  0  0  0  0
 16 17  1  0  0  0  0
 17 18  1  0  0  0  0
 18 19  2  0  0  0  0
 16 20  1  0  0  0  0
  3 21  1  0  0  0  0
  5 22  1  0  0  0  0
  6 23  1  0  0  0  0
  7 24  1  0  0  0  0
  8 25  1  0  0  0  0
  9 26  1  0  0  0  0
 12 27  1  0  0  0  0
 12 28  1  0  0  0  0
 12 29  1  0  0  0  0
 15 30  1  0  0  0  0
 16 31  1  0  0  0  0
 17 32  1  0  0  0  0
 17 33  1  0  0  0  0
 18 34  1  0  0  0  0
 19 35  1  0  0  0  0
 19 36  1  0  0  0  0
 20 37  1  0  0  0  0
 20 38  1  0  0  0  0
 20 39  1  0  0  0  0
M  END
>  <result-rank>
13

>  <similarity>
0.950

>  <query-name>
LIG_A_1101_CCCC[R*]_2

>  <query-smiles>
O=C(NCCCC)[C@@H](NC(=O)C)Cc1ccc(O)cc1

>  <source>
REALspace_2019-12

>  <similarity-descriptor>
0.969;1.000;1.000;0.969;0.969;0.949;0.0;1.000;1.000;1.000;1.000;0.969;0.0;0.167

>  <similarity-descriptor-smiles>
Brc1ccccc1;C=O;N;CC;CC;C;;C;N;C=O;C;Brc1ccccc1;;C.C

>  <reaction-name>
s_22

>  <reagent1-name>
5002572

>  <reagent1-smiles>
[R1*]NC(CC=C)C

>  <reagent2-name>
12624298

>  <reagent2-smiles>
[R1*]C(=O)C(NC(=O)C)c1cc(Br)ccc1

$$$$
s_2708____10336314____11569282
          04022015093D 1   1.00000     0.00000     0
            
 51 51  0  0  0  0            999 V2000
    6.4398   -5.6737    1.0770 F   0  0  0  0  0  0  0  0  0  0  0  0
    5.9748   -4.4284    1.1295 C   0  0  0  0  0  0  0  0  0  0  0  0
    5.2999   -3.8951    0.0362 C   0  0  0  0  0  0  0  0  0  0  0  0
    4.8173   -2.5919    0.0981 C   0  0  0  0  0  0  0  0  0  0  0  0
    5.0147   -1.8386    1.2505 C   0  0  0  0  0  0  0  0  0  0  0  0
    5.6897   -2.3771    2.3407 C   0  0  0  0  0  0  0  0  0  0  0  0
    6.1741   -3.6796    2.2847 C   0  0  0  0  0  0  0  0  0  0  0  0
    4.4851   -0.4154    1.3116 C   0  0  0  0  0  0  0  0  0  0  0  0
    2.9767   -0.4276    1.1249 C   0  0  3  0  0  0  0  0  0  0  0  0
    2.3231   -1.0941    2.3245 C   0  0  0  0  0  0  0  0  0  0  0  0
    2.6799   -0.8132    3.4352 O   0  0  0  0  0  0  0  0  0  0  0  0
    1.3265   -2.0155    2.1376 N   0  0  0  0  0  0  0  0  0  0  0  0
    0.5452   -2.4962    3.2861 C   0  0  0  0  0  0  0  0  0  0  0  0
    1.0387   -2.5233    0.7885 C   0  0  0  0  0  0  0  0  0  0  0  0
    2.4700    1.0000    1.0000 C   0  0  0  0  0  0  0  0  0  0  0  0
    1.0000    1.0000    1.0000 N   0  0  0  0  0  0  0  0  0  0  0  0
    0.3150    1.0000    2.1865 C   0  0  0  0  0  0  0  0  0  0  0  0
    0.7944    1.5196    3.1561 O   0  0  0  0  0  0  0  0  0  0  0  0
   -0.9173    0.4068    2.2659 N   0  0  0  0  0  0  0  0  0  0  0  0
   -1.9181    0.9154    3.2150 C   0  0  3  0  0  0  0  0  0  0  0  0
   -2.8164   -0.2256    3.6641 C   0  0  0  0  0  0  0  0  0  0  0  0
   -3.5196   -1.1189    4.0156 C   0  0  0  0  0  0  0  0  0  0  0  0
   -2.7588    1.9864    2.5393 C   0  0  0  0  0  0  0  0  0  0  0  0
   -3.7936    2.5123    3.5207 C   0  0  0  0  0  0  0  0  0  0  0  0
   -1.8605    3.1273    2.0903 C   0  0  0  0  0  0  0  0  0  0  0  0
    5.1627   -4.4445   -0.7880 H   0  0  0  0  0  0  0  0  0  0  0  0
    4.3308   -2.1986   -0.6821 H   0  0  0  0  0  0  0  0  0  0  0  0
    5.8267   -1.8277    3.1650 H   0  0  0  0  0  0  0  0  0  0  0  0
    6.6598   -4.0730    3.0653 H   0  0  0  0  0  0  0  0  0  0  0  0
    4.9064    0.1285    0.5858 H   0  0  0  0  0  0  0  0  0  0  0  0
    4.7077   -0.0147    2.2004 H   0  0  0  0  0  0  0  0  0  0  0  0
    2.7476   -0.9364    0.2950 H   0  0  0  0  0  0  0  0  0  0  0  0
   -0.1346   -3.1594    2.9728 H   0  0  0  0  0  0  0  0  0  0  0  0
    1.1567   -2.9324    3.9463 H   0  0  0  0  0  0  0  0  0  0  0  0
    0.0817   -1.7240    3.7207 H   0  0  0  0  0  0  0  0  0  0  0  0
    0.2881   -3.1826    0.8336 H   0  0  0  0  0  0  0  0  0  0  0  0
    0.7786   -1.7623    0.1943 H   0  0  0  0  0  0  0  0  0  0  0  0
    1.8535   -2.9706    0.4198 H   0  0  0  0  0  0  0  0  0  0  0  0
    2.8033    1.5408    1.7723 H   0  0  0  0  0  0  0  0  0  0  0  0
    2.8033    1.3984    0.1455 H   0  0  0  0  0  0  0  0  0  0  0  0
    0.5000    1.0000    0.1340 H   0  0  0  0  0  0  0  0  0  0  0  0
   -1.1361   -0.3722    1.6783 H   0  0  0  0  0  0  0  0  0  0  0  0
   -1.4547    1.3074    4.0098 H   0  0  0  0  0  0  0  0  0  0  0  0
   -4.1106   -1.8695    4.3110 H   0  0  0  0  0  0  0  0  0  0  0  0
   -3.2222    1.5943    1.7446 H   0  0  0  0  0  0  0  0  0  0  0  0
   -4.3467    3.2169    3.0762 H   0  0  0  0  0  0  0  0  0  0  0  0
   -4.3846    1.7616    3.8161 H   0  0  0  0  0  0  0  0  0  0  0  0
   -3.3303    2.9043    4.3154 H   0  0  0  0  0  0  0  0  0  0  0  0
   -2.4137    3.8319    1.6458 H   0  0  0  0  0  0  0  0  0  0  0  0
   -1.3972    3.5194    2.8850 H   0  0  0  0  0  0  0  0  0  0  0  0
   -1.1798    2.7813    1.4447 H   0  0  0  0  0  0  0  0  0  0  0  0
  1  2  1  0  0  0  0
  2  3  1  0  0  0  0
  3  4  2  0  0  0  0
  4  5  1  0  0  0  0
  5  6  2  0  0  0  0
  6  7  1  0  0  0  0
  7  2  2  0  0  0  0
  5  8  1  0  0  0  0
  8  9  1  0  0  0  0
  9 10  1  0  0  0  0
 10 11  2  0  0  0  0
 10 12  1  0  0  0  0
 12 13  1  0  0  0  0
 12 14  1  0  0  0  0
  9 15  1  0  0  0  0
 15 16  1  0  0  0  0
 16 17  1  0  0  0  0
 17 18  2  0  0  0  0
 17 19  1  0  0  0  0
 19 20  1  0  0  0  0
 20 21  1  0  0  0  0
 21 22  3  0  0  0  0
 20 23  1  0  0  0  0
 23 24  1  0  0  0  0
 23 25  1  0  0  0  0
  3 26  1  0  0  0  0
  4 27  1  0  0  0  0
  6 28  1  0  0  0  0
  7 29  1  0  0  0  0
  8 30  1  0  0  0  0
  8 31  1  0  0  0  0
  9 32  1  0  0  0  0
 13 33  1  0  0  0  0
 13 34  1  0  0  0  0
 13 35  1  0  0  0  0
 14 36  1  0  0  0  0
 14 37  1  0  0  0  0
 14 38  1  0  0  0  0
 15 39  1  0  0  0  0
 15 40  1  0  0  0  0
 16 41  1  0  0  0  0
 19 42  1  0  0  0  0
 20 43  1  0  0  0  0
 22 44  1  0  0  0  0
 23 45  1  0  0  0  0
 24 46  1  0  0  0  0
 24 47  1  0  0  0  0
 24 48  1  0  0  0  0
 25 49  1  0  0  0  0
 25 50  1  0  0  0  0
 25 51  1  0  0  0  0
M  END
>  <result-rank>
14

>  <similarity>
0.950

>  <query-name>
LIG_A_1101_CCCC[R*]_2

>  <query-smiles>
O=C(NCCCC)[C@@H](NC(=O)C)Cc1ccc(O)cc1

>  <source>
REALspace_2019-12

>  <similarity-descriptor>
0.983;0.995;1.000;0.981;0.998;0.998;1.000;0.824;0.824;1.000;0.977;1.000;0.0;0.118

>  <similarity-descriptor-smiles>
Fc1ccccc1;C=O;N;CC;CC;CC;C;CCN;CCN;C=O;NC;C;;C.C

>  <reaction-name>
s_2708

>  <reagent1-name>
10336314

>  <reagent1-smiles>
[R1*]C(=O)NC(C#C)C(C)C

>  <reagent2-name>
11569282

>  <reagent2-smiles>
[R1*]NCC(C(=O)N(C)C)Cc1ccc(F)cc1

$$$$
s_512____14933166____13941176
          04022015093D 1   1.00000     0.00000     0
            
 37 37  0  0  0  0            999 V2000
   -3.1862    5.0380    5.9522 Cl  0  0  0  0  0  0  0  0  0  0  0  0
   -2.5887    4.2020    4.4989 C   0  0  0  0  0  0  0  0  0  0  0  0
   -1.6262    4.8079    3.6990 C   0  0  0  0  0  0  0  0  0  0  0  0
   -1.1570    4.1583    2.5618 C   0  0  0  0  0  0  0  0  0  0  0  0
   -1.6615    2.9027    2.2406 C   0  0  0  0  0  0  0  0  0  0  0  0
   -2.6241    2.2965    3.0400 C   0  0  0  0  0  0  0  0  0  0  0  0
   -3.0935    2.9462    4.1774 C   0  0  0  0  0  0  0  0  0  0  0  0
   -1.1550    2.1865    1.0000 C   0  0  3  0  0  0  0  0  0  0  0  0
    0.3150    2.1865    1.0000 N   0  0  0  0  0  0  0  0  0  0  0  0
    1.0000    1.0000    1.0000 C   0  0  0  0  0  0  0  0  0  0  0  0
    0.4000   -0.0392    1.0000 O   0  0  0  0  0  0  0  0  0  0  0  0
    2.3700    1.0000    1.0000 N   0  0  0  0  0  0  0  0  0  0  0  0
    3.1050   -0.2682    0.8890 C   0  0  0  0  0  0  0  0  0  0  0  0
    3.2502   -0.6431   -0.5768 C   0  0  3  0  0  0  0  0  0  0  0  0
    4.1685    0.3529   -1.2660 C   0  0  0  0  0  0  0  0  0  0  0  0
    4.5563   -0.1397   -2.4390 F   0  0  0  0  0  0  0  0  0  0  0  0
    3.5172    1.4964   -1.4589 F   0  0  0  0  0  0  0  0  0  0  0  0
    3.8427   -2.0386   -0.6866 C   0  0  0  0  0  0  0  0  0  0  0  0
   -1.6617    2.9030   -0.2411 C   0  0  0  0  0  0  0  0  0  0  0  0
   -2.6122    3.6317   -0.1672 O   0  0  0  0  0  0  0  0  0  0  0  0
   -1.0331    2.7169   -1.4441 N   0  0  0  0  0  0  0  0  0  0  0  0
   -1.2712    5.7109    3.9412 H   0  0  0  0  0  0  0  0  0  0  0  0
   -0.4652    4.5891    1.9823 H   0  0  0  0  0  0  0  0  0  0  0  0
   -2.9791    1.3936    2.7976 H   0  0  0  0  0  0  0  0  0  0  0  0
   -3.7855    2.5156    4.7568 H   0  0  0  0  0  0  0  0  0  0  0  0
   -1.4883    1.2436    1.0000 H   0  0  0  0  0  0  0  0  0  0  0  0
    0.8150    3.0525    1.0000 H   0  0  0  0  0  0  0  0  0  0  0  0
    2.8700    1.8627    1.0755 H   0  0  0  0  0  0  0  0  0  0  0  0
    2.6028   -0.9876    1.3689 H   0  0  0  0  0  0  0  0  0  0  0  0
    4.0117   -0.1649    1.2981 H   0  0  0  0  0  0  0  0  0  0  0  0
    2.3517   -0.6270   -1.0156 H   0  0  0  0  0  0  0  0  0  0  0  0
    4.9707    0.5189   -0.6925 H   0  0  0  0  0  0  0  0  0  0  0  0
    3.2386   -2.6939   -0.2332 H   0  0  0  0  0  0  0  0  0  0  0  0
    3.9382   -2.2852   -1.6510 H   0  0  0  0  0  0  0  0  0  0  0  0
    4.7412   -2.0547   -0.2479 H   0  0  0  0  0  0  0  0  0  0  0  0
   -0.2410    2.1097   -1.5057 H   0  0  0  0  0  0  0  0  0  0  0  0
   -1.3664    3.1883   -2.2606 H   0  0  0  0  0  0  0  0  0  0  0  0
  1  2  1  0  0  0  0
  2  3  1  0  0  0  0
  3  4  2  0  0  0  0
  4  5  1  0  0  0  0
  5  6  2  0  0  0  0
  6  7  1  0  0  0  0
  7  2  2  0  0  0  0
  5  8  1  0  0  0  0
  8  9  1  0  0  0  0
  9 10  1  0  0  0  0
 10 11  2  0  0  0  0
 10 12  1  0  0  0  0
 12 13  1  0  0  0  0
 13 14  1  0  0  0  0
 14 15  1  0  0  0  0
 15 16  1  0  0  0  0
 15 17  1  0  0  0  0
 14 18  1  0  0  0  0
  8 19  1  0  0  0  0
 19 20  2  0  0  0  0
 19 21  1  0  0  0  0
  3 22  1  0  0  0  0
  4 23  1  0  0  0  0
  6 24  1  0  0  0  0
  7 25  1  0  0  0  0
  8 26  1  0  0  0  0
  9 27  1  0  0  0  0
 12 28  1  0  0  0  0
 13 29  1  0  0  0  0
 13 30  1  0  0  0  0
 14 31  1  0  0  0  0
 15 32  1  0  0  0  0
 18 33  1  0  0  0  0
 18 34  1  0  0  0  0
 18 35  1  0  0  0  0
 21 36  1  0  0  0  0
 21 37  1  0  0  0  0
M  END
>  <result-rank>
15

>  <similarity>
0.950

>  <query-name>
LIG_A_1101_CCCC[R*]_2

>  <query-smiles>
O=C(NCCCC)[C@@H](NC(=O)C)Cc1ccc(O)cc1

>  <source>
REALspace_2019-12

>  <similarity-descriptor>
0.969;0.995;1.000;1.000;0.982;0.982;1.000;1.000;1.000;0.836;0.836;0.969;0.0;0.091

>  <similarity-descriptor-smiles>
Clc1ccccc1;C=O;N;C;CC(F)F;CC(F)F;C;CN;CN;C=O;C=O;Clc1ccccc1;;N

>  <reaction-name>
s_512

>  <reagent1-name>
14933166

>  <reagent1-smiles>
[R1*]C(=O)NCC(C(F)F)C

>  <reagent2-name>
13941176

>  <reagent2-smiles>
[R1*]NC(c1ccc(Cl)cc1)C(=O)N

$$$$
s_22____9631018____16717358
          04022015093D 1   1.00000     0.00000     0
            
 50 51  0  0  0  0            999 V2000
    2.7261   -3.2114    0.4420 F   0  0  0  0  0  0  0  0  0  0  0  0
    2.3308   -3.1244   -0.8269 C   0  0  0  0  0  0  0  0  0  0  0  0
    2.8381   -1.8817   -1.5444 C   0  0  0  0  0  0  0  0  0  0  0  0
    2.3481   -0.6814   -0.8514 N   0  0  0  0  0  0  0  0  0  0  0  0
    2.9767   -0.2411    0.2835 C   0  0  0  0  0  0  0  0  0  0  0  0
    3.9272   -0.8352    0.7118 O   0  0  0  0  0  0  0  0  0  0  0  0
    2.4700    1.0000    1.0000 C   0  0  3  0  0  0  0  0  0  0  0  0
    1.0000    1.0000    1.0000 N   0  0  0  0  0  0  0  0  0  0  0  0
    0.3150    1.0000    2.1865 C   0  0  0  0  0  0  0  0  0  0  0  0
    0.9150    1.0000    3.2257 O   0  0  0  0  0  0  0  0  0  0  0  0
   -1.2050    1.0000    2.1865 C   0  0  0  0  0  0  0  0  0  0  0  0
   -1.6950    1.0000    3.5724 N   0  0  0  0  0  0  0  0  0  0  0  0
   -1.7291    2.1684    4.2869 C   0  0  0  0  0  0  0  0  0  0  0  0
   -1.3590    3.1919    3.7814 O   0  0  0  0  0  0  0  0  0  0  0  0
   -2.2358    2.1684    5.7200 C   0  0  0  0  0  0  0  0  0  0  0  0
    2.9767    2.2411    0.2835 C   0  0  0  0  0  0  0  0  0  0  0  0
    2.4700    3.4822    1.0000 C   0  0  0  0  0  0  0  0  0  0  0  0
    3.2306    4.0410    2.0218 C   0  0  0  0  0  0  0  0  0  0  0  0
    2.7714    5.1770    2.6798 C   0  0  0  0  0  0  0  0  0  0  0  0
    1.5555    5.7409    2.3064 C   0  0  0  0  0  0  0  0  0  0  0  0
    1.1058    6.8432    2.9425 O   0  0  0  0  0  0  0  0  0  0  0  0
    0.7907    5.1858    1.2854 C   0  0  0  0  0  0  0  0  0  0  0  0
    1.2550    4.0500    0.6306 C   0  0  0  0  0  0  0  0  0  0  0  0
    2.5952   -4.3466   -1.6777 C   0  0  0  0  0  0  0  0  0  0  0  0
    1.2330   -4.8492   -1.2485 C   0  0  0  0  0  0  0  0  0  0  0  0
    0.8663   -3.3874   -1.1042 C   0  0  0  0  0  0  0  0  0  0  0  0
    3.8381   -1.8817   -1.5444 H   0  0  0  0  0  0  0  0  0  0  0  0
    2.5048   -1.8817   -2.4872 H   0  0  0  0  0  0  0  0  0  0  0  0
    1.5560   -0.1864   -1.2083 H   0  0  0  0  0  0  0  0  0  0  0  0
    2.8033    1.0000    1.9428 H   0  0  0  0  0  0  0  0  0  0  0  0
    0.5000    1.0000    0.1340 H   0  0  0  0  0  0  0  0  0  0  0  0
   -1.5383    1.8165    1.7151 H   0  0  0  0  0  0  0  0  0  0  0  0
   -1.5383    0.1835    1.7151 H   0  0  0  0  0  0  0  0  0  0  0  0
   -2.0034    0.1471    3.9937 H   0  0  0  0  0  0  0  0  0  0  0  0
   -2.5012    1.2399    5.9797 H   0  0  0  0  0  0  0  0  0  0  0  0
   -1.5116    2.4909    6.3295 H   0  0  0  0  0  0  0  0  0  0  0  0
   -3.0278    2.7745    5.7935 H   0  0  0  0  0  0  0  0  0  0  0  0
    3.9767    2.2411    0.2835 H   0  0  0  0  0  0  0  0  0  0  0  0
    2.6433    2.2411   -0.6593 H   0  0  0  0  0  0  0  0  0  0  0  0
    4.1034    3.6279    2.2820 H   0  0  0  0  0  0  0  0  0  0  0  0
    3.3111    5.5856    3.4158 H   0  0  0  0  0  0  0  0  0  0  0  0
    0.2325    7.2521    2.6777 H   0  0  0  0  0  0  0  0  0  0  0  0
   -0.0823    5.5984    1.0255 H   0  0  0  0  0  0  0  0  0  0  0  0
    0.7154    3.6416   -0.1057 H   0  0  0  0  0  0  0  0  0  0  0  0
    3.3635   -4.9097   -1.3732 H   0  0  0  0  0  0  0  0  0  0  0  0
    2.6838   -4.1632   -2.6567 H   0  0  0  0  0  0  0  0  0  0  0  0
    1.2241   -5.3740   -0.3974 H   0  0  0  0  0  0  0  0  0  0  0  0
    0.7241   -5.3459   -1.9517 H   0  0  0  0  0  0  0  0  0  0  0  0
    0.5151   -2.9601   -1.9373 H   0  0  0  0  0  0  0  0  0  0  0  0
    0.2530   -3.1835   -0.3411 H   0  0  0  0  0  0  0  0  0  0  0  0
  1  2  1  0  0  0  0
  2  3  1  0  0  0  0
  3  4  1  0  0  0  0
  4  5  1  0  0  0  0
  5  6  2  0  0  0  0
  5  7  1  0  0  0  0
  7  8  1  0  0  0  0
  8  9  1  0  0  0  0
  9 10  2  0  0  0  0
  9 11  1  0  0  0  0
 11 12  1  0  0  0  0
 12 13  1  0  0  0  0
 13 14  2  0  0  0  0
 13 15  1  0  0  0  0
  7 16  1  0  0  0  0
 16 17  1  0  0  0  0
 17 18  1  0  0  0  0
 18 19  2  0  0  0  0
 19 20  1  0  0  0  0
 20 21  1  0  0  0  0
 20 22  2  0  0  0  0
 22 23  1  0  0  0  0
 23 17  2  0  0  0  0
  2 24  1  0  0  0  0
 24 25  1  0  0  0  0
 25 26  1  0  0  0  0
 26  2  1  0  0  0  0
  3 27  1  0  0  0  0
  3 28  1  0  0  0  0
  4 29  1  0  0  0  0
  7 30  1  0  0  0  0
  8 31  1  0  0  0  0
 11 32  1  0  0  0  0
 11 33  1  0  0  0  0
 12 34  1  0  0  0  0
 15 35  1  0  0  0  0
 15 36  1  0  0  0  0
 15 37  1  0  0  0  0
 16 38  1  0  0  0  0
 16 39  1  0  0  0  0
 18 40  1  0  0  0  0
 19 41  1  0  0  0  0
 21 42  1  0  0  0  0
 22 43  1  0  0  0  0
 23 44  1  0  0  0  0
 24 45  1  0  0  0  0
 24 46  1  0  0  0  0
 25 47  1  0  0  0  0
 25 48  1  0  0  0  0
 26 49  1  0  0  0  0
 26 50  1  0  0  0  0
M  END
>  <result-rank>
16

>  <similarity>
0.950

>  <query-name>
LIG_A_1101_CCCC[R*]_2

>  <query-smiles>
O=C(NCCCC)[C@@H](NC(=O)C)Cc1ccc(O)cc1

>  <source>
REALspace_2019-12

>  <similarity-descriptor>
1.000;1.000;1.000;1.000;0.890;0.890;0.890;1.000;1.000;1.000;0.955;1.000;1.000;0.214

>  <similarity-descriptor-smiles>
c1ccccc1;C=O;N;C;FC1CCC1;FC1CCC1;FC1CCC1;C;N;C=O;C;C;O;N.C=O.C

>  <reaction-name>
s_22

>  <reagent1-name>
9631018

>  <reagent1-smiles>
[R1*]NCC1(F)CCC1

>  <reagent2-name>
16717358

>  <reagent2-smiles>
[R1*]C(=O)C(NC(=O)CNC(=O)C)Cc1ccc(O)cc1

$$$$
s_22____12206138____4059138
          04022015093D 1   1.00000     0.00000     0
            
 56 56  0  0  0  0            999 V2000
    0.2404    0.9013    7.0964 O   0  0  0  0  0  0  0  0  0  0  0  0
    0.6355    1.9116    6.5833 C   0  0  0  0  0  0  0  0  0  0  0  0
    1.5507    2.6347    7.1799 O   0  0  0  0  0  0  0  0  0  0  0  0
    2.0752    2.2229    8.4335 C   0  0  0  0  0  0  0  0  0  0  0  0
    0.0741    2.3524    5.2414 C   0  0  3  0  0  0  0  0  0  0  0  0
    0.8842    1.7767    4.1583 N   0  0  0  0  0  0  0  0  0  0  0  0
    1.0110    2.4441    2.9686 C   0  0  0  0  0  0  0  0  0  0  0  0
    0.4607    3.4987    2.8107 O   0  0  0  0  0  0  0  0  0  0  0  0
    1.8487    1.8487    1.8487 C   0  0  0  0  0  0  0  0  0  0  0  0
    1.0000    1.0000    1.0000 N   0  3  3  0  0  0  0  0  0  0  0  0
    1.8487    0.1513    0.1513 C   0  0  0  0  0  0  0  0  0  0  0  0
    0.9711   -0.7263   -0.7263 C   0  0  0  0  0  0  0  0  0  0  0  0
    1.8487   -1.6038   -1.6038 C   0  0  0  0  0  0  0  0  0  0  0  0
    0.9711   -2.4814   -2.4814 C   0  0  0  0  0  0  0  0  0  0  0  0
    1.8487   -3.3590   -3.3590 C   0  0  0  0  0  0  0  0  0  0  0  0
    0.9711   -4.2366   -4.2366 C   0  0  0  0  0  0  0  0  0  0  0  0
    0.1513    1.8487    0.1513 C   0  0  0  0  0  0  0  0  0  0  0  0
   -1.3620    1.8718    5.1104 C   0  0  0  0  0  0  0  0  0  0  0  0
   -2.2885    2.8424    5.8253 C   0  0  0  0  0  0  0  0  0  0  0  0
   -2.7073    4.0042    5.1843 C   0  0  0  0  0  0  0  0  0  0  0  0
   -2.3000    4.2853    3.9280 O   0  0  0  0  0  0  0  0  0  0  0  0
   -3.5550    4.8926    5.8386 C   0  0  0  0  0  0  0  0  0  0  0  0
   -3.9843    4.6187    7.1336 C   0  0  0  0  0  0  0  0  0  0  0  0
   -3.5657    3.4565    7.7739 C   0  0  0  0  0  0  0  0  0  0  0  0
   -2.7184    2.5684    7.1194 C   0  0  0  0  0  0  0  0  0  0  0  0
    0.4226    0.4226    1.5774 H   0  0  0  0  0  0  0  0  0  0  0  0
    2.7578    2.8849    8.7430 H   0  0  0  0  0  0  0  0  0  0  0  0
    1.3346    2.1698    9.1035 H   0  0  0  0  0  0  0  0  0  0  0  0
    2.5025    1.3239    8.3371 H   0  0  0  0  0  0  0  0  0  0  0  0
    0.0983    3.3503    5.1814 H   0  0  0  0  0  0  0  0  0  0  0  0
    1.3428    0.8978    4.2899 H   0  0  0  0  0  0  0  0  0  0  0  0
    2.2404    2.5855    1.2976 H   0  0  0  0  0  0  0  0  0  0  0  0
    2.5855    1.2976    2.2404 H   0  0  0  0  0  0  0  0  0  0  0  0
    2.4261   -0.4261    0.7286 H   0  0  0  0  0  0  0  0  0  0  0  0
    2.4261    0.7286   -0.4261 H   0  0  0  0  0  0  0  0  0  0  0  0
    0.3938   -0.1489   -1.3036 H   0  0  0  0  0  0  0  0  0  0  0  0
    0.3938   -1.3036   -0.1489 H   0  0  0  0  0  0  0  0  0  0  0  0
    2.4261   -2.1812   -1.0265 H   0  0  0  0  0  0  0  0  0  0  0  0
    2.4261   -1.0265   -2.1812 H   0  0  0  0  0  0  0  0  0  0  0  0
    0.3938   -1.9041   -3.0588 H   0  0  0  0  0  0  0  0  0  0  0  0
    0.3938   -3.0588   -1.9041 H   0  0  0  0  0  0  0  0  0  0  0  0
    2.4261   -3.9363   -2.7816 H   0  0  0  0  0  0  0  0  0  0  0  0
    2.4261   -2.7816   -3.9363 H   0  0  0  0  0  0  0  0  0  0  0  0
    1.5485   -4.8139   -4.8139 H   0  0  0  0  0  0  0  0  0  0  0  0
    0.3938   -4.8139   -3.6592 H   0  0  0  0  0  0  0  0  0  0  0  0
    0.3938   -3.6592   -4.8139 H   0  0  0  0  0  0  0  0  0  0  0  0
   -0.4261    1.2714   -0.4261 H   0  0  0  0  0  0  0  0  0  0  0  0
   -0.4261    2.4261    0.7286 H   0  0  0  0  0  0  0  0  0  0  0  0
    0.7286    2.4261   -0.4261 H   0  0  0  0  0  0  0  0  0  0  0  0
   -1.6108    1.8246    4.1430 H   0  0  0  0  0  0  0  0  0  0  0  0
   -1.4485    0.9643    5.5214 H   0  0  0  0  0  0  0  0  0  0  0  0
   -2.6082    5.1236    3.4782 H   0  0  0  0  0  0  0  0  0  0  0  0
   -3.8558    5.7278    5.3782 H   0  0  0  0  0  0  0  0  0  0  0  0
   -4.5935    5.2571    7.6040 H   0  0  0  0  0  0  0  0  0  0  0  0
   -3.8741    3.2597    8.7046 H   0  0  0  0  0  0  0  0  0  0  0  0
   -2.4183    1.7327    7.5794 H   0  0  0  0  0  0  0  0  0  0  0  0
  1  2  2  0  0  0  0
  2  3  1  0  0  0  0
  3  4  1  0  0  0  0
  2  5  1  0  0  0  0
  5  6  1  0  0  0  0
  6  7  1  0  0  0  0
  7  8  2  0  0  0  0
  7  9  1  0  0  0  0
  9 10  1  0  0  0  0
 10 11  1  0  0  0  0
 11 12  1  0  0  0  0
 12 13  1  0  0  0  0
 13 14  1  0  0  0  0
 14 15  1  0  0  0  0
 15 16  1  0  0  0  0
 10 17  1  0  0  0  0
  5 18  1  0  0  0  0
 18 19  1  0  0  0  0
 19 20  1  0  0  0  0
 20 21  1  0  0  0  0
 20 22  2  0  0  0  0
 22 23  1  0  0  0  0
 23 24  2  0  0  0  0
 24 25  1  0  0  0  0
 25 19  2  0  0  0  0
 10 26  1  0  0  0  0
  4 27  1  0  0  0  0
  4 28  1  0  0  0  0
  4 29  1  0  0  0  0
  5 30  1  0  0  0  0
  6 31  1  0  0  0  0
  9 32  1  0  0  0  0
  9 33  1  0  0  0  0
 11 34  1  0  0  0  0
 11 35  1  0  0  0  0
 12 36  1  0  0  0  0
 12 37  1  0  0  0  0
 13 38  1  0  0  0  0
 13 39  1  0  0  0  0
 14 40  1  0  0  0  0
 14 41  1  0  0  0  0
 15 42  1  0  0  0  0
 15 43  1  0  0  0  0
 16 44  1  0  0  0  0
 16 45  1  0  0  0  0
 16 46  1  0  0  0  0
 17 47  1  0  0  0  0
 17 48  1  0  0  0  0
 17 49  1  0  0  0  0
 18 50  1  0  0  0  0
 18 51  1  0  0  0  0
 21 52  1  0  0  0  0
 22 53  1  0  0  0  0
 23 54  1  0  0  0  0
 24 55  1  0  0  0  0
 25 56  1  0  0  0  0
M  CHG  1  10   1
M  END
>  <result-rank>
17

>  <similarity>
0.950

>  <query-name>
LIG_A_1101_CCCC[R*]_2

>  <query-smiles>
O=C(NCCCC)[C@@H](NC(=O)C)Cc1ccc(O)cc1

>  <source>
REALspace_2019-12

>  <similarity-descriptor>
1.000;1.000;0.983;0.983;0.993;1.000;0.949;1.000;1.000;0.855;0.994;1.000;1.000;0.222

>  <similarity-descriptor-smiles>
c1ccccc1;C=O;C[NH+];C[NH+];C;C;C;CN;CN;O=CO;C;C;O;C.C.C.C

>  <reaction-name>
s_22

>  <reagent1-name>
12206138

>  <reagent1-smiles>
[R1*]NC(C(=O)OC)Cc1c(O)cccc1

>  <reagent2-name>
4059138

>  <reagent2-smiles>
[R1*]C(=O)CN(CCCCCC)C

$$$$
s_2708____13426432____15747386
          04022015093D 1   1.00000     0.00000     0
            
 39 39  0  0  0  0            999 V2000
    9.2896   -1.6204    3.3500 F   0  0  0  0  0  0  0  0  0  0  0  0
    8.6240   -1.6199    2.1986 C   0  0  0  0  0  0  0  0  0  0  0  0
    9.3301   -1.6203    1.0001 C   0  0  0  0  0  0  0  0  0  0  0  0
    8.6232   -1.6199   -0.1978 C   0  0  0  0  0  0  0  0  0  0  0  0
    9.3008   -1.6207   -1.3653 O   0  0  0  0  0  0  0  0  0  0  0  0
    7.2325   -1.6197   -0.2122 C   0  0  0  0  0  0  0  0  0  0  0  0
    6.5513   -1.6195    1.0000 C   0  0  0  0  0  0  0  0  0  0  0  0
    7.2333   -1.6195    2.2118 C   0  0  0  0  0  0  0  0  0  0  0  0
    5.0317   -1.6195    1.0000 C   0  0  0  0  0  0  0  0  0  0  0  0
    4.5250   -0.1865    1.0000 C   0  0  0  0  0  0  0  0  0  0  0  0
    3.0550   -0.1865    1.0000 N   0  0  0  0  0  0  0  0  0  0  0  0
    2.3700    1.0000    1.0000 C   0  0  0  0  0  0  0  0  0  0  0  0
    2.9700    2.0392    1.0000 O   0  0  0  0  0  0  0  0  0  0  0  0
    1.0000    1.0000    1.0000 N   0  0  0  0  0  0  0  0  0  0  0  0
    0.2650    2.2731    1.0000 C   0  0  3  0  0  0  0  0  0  0  0  0
   -0.6089    2.3536   -0.2411 C   0  0  0  0  0  0  0  0  0  0  0  0
   -1.3689    3.6699   -0.2411 C   0  0  0  0  0  0  0  0  0  0  0  0
   -1.9639    4.7005   -0.2411 C   0  0  0  0  0  0  0  0  0  0  0  0
   -2.7239    6.0169   -0.2411 C   0  0  0  0  0  0  0  0  0  0  0  0
   -0.6089    2.3536    2.2411 C   0  0  0  0  0  0  0  0  0  0  0  0
   10.3301   -1.6210    0.9997 H   0  0  0  0  0  0  0  0  0  0  0  0
    8.8028   -1.6204   -2.2325 H   0  0  0  0  0  0  0  0  0  0  0  0
    6.7319   -1.6196   -1.0779 H   0  0  0  0  0  0  0  0  0  0  0  0
    6.7327   -1.6193    3.0775 H   0  0  0  0  0  0  0  0  0  0  0  0
    4.6983   -2.0909    1.8165 H   0  0  0  0  0  0  0  0  0  0  0  0
    4.6983   -2.0909    0.1835 H   0  0  0  0  0  0  0  0  0  0  0  0
    4.8583    0.2849    1.8165 H   0  0  0  0  0  0  0  0  0  0  0  0
    4.8583    0.2849    0.1835 H   0  0  0  0  0  0  0  0  0  0  0  0
    2.5550   -1.0525    1.0000 H   0  0  0  0  0  0  0  0  0  0  0  0
    0.5000    0.1340    1.0000 H   0  0  0  0  0  0  0  0  0  0  0  0
    0.9148    3.0331    1.0000 H   0  0  0  0  0  0  0  0  0  0  0  0
   -0.0340    2.3006   -1.0576 H   0  0  0  0  0  0  0  0  0  0  0  0
   -1.2587    1.5935   -0.2411 H   0  0  0  0  0  0  0  0  0  0  0  0
   -3.7070    5.8341   -0.2411 H   0  0  0  0  0  0  0  0  0  0  0  0
   -2.4823    6.5412    0.5754 H   0  0  0  0  0  0  0  0  0  0  0  0
   -2.4823    6.5412   -1.0576 H   0  0  0  0  0  0  0  0  0  0  0  0
   -1.1089    3.2196    2.2411 H   0  0  0  0  0  0  0  0  0  0  0  0
   -1.2587    1.5935    2.2411 H   0  0  0  0  0  0  0  0  0  0  0  0
   -0.0340    2.3006    3.0576 H   0  0  0  0  0  0  0  0  0  0  0  0
  1  2  1  0  0  0  0
  2  3  1  0  0  0  0
  3  4  2  0  0  0  0
  4  5  1  0  0  0  0
  4  6  1  0  0  0  0
  6  7  2  0  0  0  0
  7  8  1  0  0  0  0
  8  2  2  0  0  0  0
  7  9  1  0  0  0  0
  9 10  1  0  0  0  0
 10 11  1  0  0  0  0
 11 12  1  0  0  0  0
 12 13  2  0  0  0  0
 12 14  1  0  0  0  0
 14 15  1  0  0  0  0
 15 16  1  0  0  0  0
 16 17  1  0  0  0  0
 17 18  3  0  0  0  0
 18 19  1  0  0  0  0
 15 20  1  0  0  0  0
  3 21  1  0  0  0  0
  5 22  1  0  0  0  0
  6 23  1  0  0  0  0
  8 24  1  0  0  0  0
  9 25  1  0  0  0  0
  9 26  1  0  0  0  0
 10 27  1  0  0  0  0
 10 28  1  0  0  0  0
 11 29  1  0  0  0  0
 14 30  1  0  0  0  0
 15 31  1  0  0  0  0
 16 32  1  0  0  0  0
 16 33  1  0  0  0  0
 19 34  1  0  0  0  0
 19 35  1  0  0  0  0
 19 36  1  0  0  0  0
 20 37  1  0  0  0  0
 20 38  1  0  0  0  0
 20 39  1  0  0  0  0
M  END
>  <result-rank>
18

>  <similarity>
0.950

>  <query-name>
LIG_A_1101_CCCC[R*]_2

>  <query-smiles>
O=C(NCCCC)[C@@H](NC(=O)C)Cc1ccc(O)cc1

>  <source>
REALspace_2019-12

>  <similarity-descriptor>
0.965;0.995;1.000;0.998;0.998;0.946;0.946;0.952;0.952;0.0;0.0;1.000;1.000;0.0

>  <similarity-descriptor-smiles>
Fc1ccccc1;C=O;N;CC;CC;CC#CC;CC#CC;CN;CN;;;C;O;

>  <reaction-name>
s_2708

>  <reagent1-name>
13426432

>  <reagent1-smiles>
[R1*]C(=O)NCCc1cc(F)cc(O)c1

>  <reagent2-name>
15747386

>  <reagent2-smiles>
[R1*]NC(CC#CC)C

$$$$
s_527a____13952036____17513452
          04022015093D 1   1.00000     0.00000     0
            
 44 44  0  0  0  0            999 V2000
    0.4000   -0.0392    1.0000 O   0  0  0  0  0  0  0  0  0  0  0  0
    1.0000    1.0000    1.0000 C   0  0  0  0  0  0  0  0  0  0  0  0
    2.3700    1.0000    1.0000 N   0  0  0  0  0  0  0  0  0  0  0  0
    3.1050   -0.2731    1.0000 C   0  0  0  0  0  0  0  0  0  0  0  0
    3.1428   -0.8363   -0.4113 C   0  0  3  0  0  0  0  0  0  0  0  0
    3.8528   -2.0660   -0.4113 O   0  0  0  0  0  0  0  0  0  0  0  0
    5.1790   -1.8469    0.0466 C   0  0  0  0  0  0  0  0  0  0  0  0
    3.8402    0.1514   -1.3325 C   0  0  0  0  0  0  0  0  0  0  0  0
    3.8755   -0.3747   -2.6509 O   0  0  0  0  0  0  0  0  0  0  0  0
    0.2400    2.3164    1.0000 C   0  0  3  0  0  0  0  0  0  0  0  0
   -1.2052    2.0477    1.0000 N   0  0  0  0  0  0  0  0  0  0  0  0
   -1.9871    2.5058    2.0275 C   0  0  0  0  0  0  0  0  0  0  0  0
   -1.4922    3.1263    2.9275 O   0  0  0  0  0  0  0  0  0  0  0  0
   -3.4815    2.2281    2.0275 C   0  0  0  0  0  0  0  0  0  0  0  0
    0.6072    3.1134   -0.2411 C   0  0  0  0  0  0  0  0  0  0  0  0
   -0.1528    4.4298   -0.2411 C   0  0  0  0  0  0  0  0  0  0  0  0
    0.4132    5.5469    0.3644 C   0  0  0  0  0  0  0  0  0  0  0  0
   -0.2782    6.7537    0.3662 C   0  0  0  0  0  0  0  0  0  0  0  0
   -1.5287    6.8280   -0.2391 C   0  0  0  0  0  0  0  0  0  0  0  0
   -2.2034    7.9972   -0.2393 O   0  0  0  0  0  0  0  0  0  0  0  0
   -2.0995    5.7138   -0.8457 C   0  0  0  0  0  0  0  0  0  0  0  0
   -1.4035    4.5097   -0.8449 C   0  0  0  0  0  0  0  0  0  0  0  0
    2.8700    1.8660    1.0000 H   0  0  0  0  0  0  0  0  0  0  0  0
    2.6462   -0.9228    1.6060 H   0  0  0  0  0  0  0  0  0  0  0  0
    4.0389   -0.1188    1.3225 H   0  0  0  0  0  0  0  0  0  0  0  0
    2.2089   -0.9906   -0.7338 H   0  0  0  0  0  0  0  0  0  0  0  0
    5.6790   -2.7129    0.0466 H   0  0  0  0  0  0  0  0  0  0  0  0
    5.6378   -1.1971   -0.5594 H   0  0  0  0  0  0  0  0  0  0  0  0
    5.1541   -1.4764    0.9751 H   0  0  0  0  0  0  0  0  0  0  0  0
    3.3402    1.0174   -1.3325 H   0  0  0  0  0  0  0  0  0  0  0  0
    4.7741    0.3057   -1.0100 H   0  0  0  0  0  0  0  0  0  0  0  0
    4.3343    0.2750   -3.2569 H   0  0  0  0  0  0  0  0  0  0  0  0
    0.4816    2.8407    1.8165 H   0  0  0  0  0  0  0  0  0  0  0  0
   -1.6177    1.5307    0.2500 H   0  0  0  0  0  0  0  0  0  0  0  0
   -3.7231    1.7037    1.2110 H   0  0  0  0  0  0  0  0  0  0  0  0
   -3.7231    1.7037    2.8440 H   0  0  0  0  0  0  0  0  0  0  0  0
   -3.9815    3.0941    2.0275 H   0  0  0  0  0  0  0  0  0  0  0  0
    1.5904    3.2961   -0.2411 H   0  0  0  0  0  0  0  0  0  0  0  0
    0.3656    2.5890   -1.0576 H   0  0  0  0  0  0  0  0  0  0  0  0
    1.3129    5.4826    0.7963 H   0  0  0  0  0  0  0  0  0  0  0  0
    0.1206    7.5620    0.7993 H   0  0  0  0  0  0  0  0  0  0  0  0
   -3.1025    8.0555   -0.6731 H   0  0  0  0  0  0  0  0  0  0  0  0
   -2.9994    5.7778   -1.2771 H   0  0  0  0  0  0  0  0  0  0  0  0
   -1.8020    3.7014   -1.2783 H   0  0  0  0  0  0  0  0  0  0  0  0
  1  2  2  0  0  0  0
  2  3  1  0  0  0  0
  3  4  1  0  0  0  0
  4  5  1  0  0  0  0
  5  6  1  0  0  0  0
  6  7  1  0  0  0  0
  5  8  1  0  0  0  0
  8  9  1  0  0  0  0
  2 10  1  0  0  0  0
 10 11  1  0  0  0  0
 11 12  1  0  0  0  0
 12 13  2  0  0  0  0
 12 14  1  0  0  0  0
 10 15  1  0  0  0  0
 15 16  1  0  0  0  0
 16 17  1  0  0  0  0
 17 18  2  0  0  0  0
 18 19  1  0  0  0  0
 19 20  1  0  0  0  0
 19 21  2  0  0  0  0
 21 22  1  0  0  0  0
 22 16  2  0  0  0  0
  3 23  1  0  0  0  0
  4 24  1  0  0  0  0
  4 25  1  0  0  0  0
  5 26  1  0  0  0  0
  7 27  1  0  0  0  0
  7 28  1  0  0  0  0
  7 29  1  0  0  0  0
  8 30  1  0  0  0  0
  8 31  1  0  0  0  0
  9 32  1  0  0  0  0
 10 33  1  0  0  0  0
 11 34  1  0  0  0  0
 14 35  1  0  0  0  0
 14 36  1  0  0  0  0
 14 37  1  0  0  0  0
 15 38  1  0  0  0  0
 15 39  1  0  0  0  0
 17 40  1  0  0  0  0
 18 41  1  0  0  0  0
 20 42  1  0  0  0  0
 21 43  1  0  0  0  0
 22 44  1  0  0  0  0
M  END
>  <result-rank>
19

>  <similarity>
0.950

>  <query-name>
LIG_A_1101_CCCC[R*]_2

>  <query-smiles>
O=C(NCCCC)[C@@H](NC(=O)C)Cc1ccc(O)cc1

>  <source>
REALspace_2019-12

>  <similarity-descriptor>
1.000;1.000;1.000;1.000;0.977;0.977;0.439;1.000;1.000;1.000;1.000;1.000;1.000;0.067

>  <similarity-descriptor-smiles>
c1ccccc1;O=C;N;C;CC;CC;OC;C;N;C=O;C;C;O;O

>  <reaction-name>
s_527a

>  <reagent1-name>
13952036

>  <reagent1-smiles>
[R1*]NCC(OC)CO

>  <reagent2-name>
17513452

>  <reagent2-smiles>
[R1*]C(=O)C(NC(=O)C)Cc1ccc(O)cc1

$$$$
s_22____4836870____17064022
          04022015093D 1   1.00000     0.00000     0
            
 60 60  0  0  0  0            999 V2000
    1.2557    4.7128    1.7726 O   0  0  0  0  0  0  0  0  0  0  0  0
    1.3899    4.4555    0.6082 C   0  0  0  0  0  0  0  0  0  0  0  0
    0.9144    3.2716    0.1091 N   0  0  0  0  0  0  0  0  0  0  0  0
    0.2400    2.3164    1.0000 C   0  0  3  0  0  0  0  0  0  0  0  0
    1.0000    1.0000    1.0000 C   0  0  0  0  0  0  0  0  0  0  0  0
    0.4000   -0.0392    1.0000 O   0  0  0  0  0  0  0  0  0  0  0  0
    2.3700    1.0000    1.0000 N   0  0  0  0  0  0  0  0  0  0  0  0
    3.1050   -0.2731    1.0000 C   0  0  0  0  0  0  0  0  0  0  0  0
    3.1428   -0.8363   -0.4113 C   0  0  0  0  0  0  0  0  0  0  0  0
    3.9028   -2.1526   -0.4113 C   0  0  0  0  0  0  0  0  0  0  0  0
    3.9406   -2.7158   -1.8226 C   0  0  0  0  0  0  0  0  0  0  0  0
    2.5678   -2.9427   -2.2966 N   0  3  0  0  0  0  0  0  0  0  0  0
    2.6044   -3.4873   -3.6615 C   0  0  0  0  0  0  0  0  0  0  0  0
    1.8933   -3.8979   -1.4058 C   0  0  0  0  0  0  0  0  0  0  0  0
   -1.1796    2.0818    0.5099 C   0  0  0  0  0  0  0  0  0  0  0  0
   -1.9396    3.3982    0.5099 C   0  0  0  0  0  0  0  0  0  0  0  0
   -1.9231    4.1980   -0.6281 C   0  0  0  0  0  0  0  0  0  0  0  0
   -2.6177    5.4030   -0.6330 C   0  0  0  0  0  0  0  0  0  0  0  0
   -3.3214    5.7930    0.5021 C   0  0  0  0  0  0  0  0  0  0  0  0
   -3.9966    6.9618    0.5018 O   0  0  0  0  0  0  0  0  0  0  0  0
   -3.3409    4.9970    1.6429 C   0  0  0  0  0  0  0  0  0  0  0  0
   -2.6449    3.7929    1.6420 C   0  0  0  0  0  0  0  0  0  0  0  0
    2.0873    5.4432   -0.3129 C   0  0  3  0  0  0  0  0  0  0  0  0
    2.5144    6.6649    0.4843 C   0  0  0  0  0  0  0  0  0  0  0  0
    3.2117    7.6526   -0.4369 C   0  0  0  0  0  0  0  0  0  0  0  0
    3.3122    4.7853   -0.9270 C   0  0  0  0  0  0  0  0  0  0  0  0
    2.0678   -2.0766   -2.2966 H   0  0  0  0  0  0  0  0  0  0  0  0
    1.0262    3.0571   -0.8612 H   0  0  0  0  0  0  0  0  0  0  0  0
    0.2151    2.6869    1.9285 H   0  0  0  0  0  0  0  0  0  0  0  0
    2.8700    1.8660    1.0000 H   0  0  0  0  0  0  0  0  0  0  0  0
    2.6462   -0.9228    1.6060 H   0  0  0  0  0  0  0  0  0  0  0  0
    4.0389   -0.1188    1.3225 H   0  0  0  0  0  0  0  0  0  0  0  0
    3.6016   -0.1865   -1.0173 H   0  0  0  0  0  0  0  0  0  0  0  0
    2.2089   -0.9906   -0.7338 H   0  0  0  0  0  0  0  0  0  0  0  0
    4.8367   -1.9983   -0.0888 H   0  0  0  0  0  0  0  0  0  0  0  0
    3.4440   -2.8024    0.1947 H   0  0  0  0  0  0  0  0  0  0  0  0
    4.3995   -2.0660   -2.4286 H   0  0  0  0  0  0  0  0  0  0  0  0
    4.4406   -3.5819   -1.8226 H   0  0  0  0  0  0  0  0  0  0  0  0
    1.6704   -3.6416   -3.9839 H   0  0  0  0  0  0  0  0  0  0  0  0
    3.0632   -2.8376   -4.2675 H   0  0  0  0  0  0  0  0  0  0  0  0
    3.1044   -4.3534   -3.6615 H   0  0  0  0  0  0  0  0  0  0  0  0
    0.9594   -4.0522   -1.7282 H   0  0  0  0  0  0  0  0  0  0  0  0
    2.3933   -4.7639   -1.4058 H   0  0  0  0  0  0  0  0  0  0  0  0
    1.8685   -3.5273   -0.4773 H   0  0  0  0  0  0  0  0  0  0  0  0
   -1.1547    1.7113   -0.4186 H   0  0  0  0  0  0  0  0  0  0  0  0
   -1.6384    1.4320    1.1159 H   0  0  0  0  0  0  0  0  0  0  0  0
   -1.4143    3.9080   -1.4387 H   0  0  0  0  0  0  0  0  0  0  0  0
   -2.6113    5.9847   -1.4463 H   0  0  0  0  0  0  0  0  0  0  0  0
   -4.5039    7.2464    1.3153 H   0  0  0  0  0  0  0  0  0  0  0  0
   -3.8492    5.2872    2.4537 H   0  0  0  0  0  0  0  0  0  0  0  0
   -2.6516    3.2109    2.4552 H   0  0  0  0  0  0  0  0  0  0  0  0
    1.4592    5.7221   -1.0394 H   0  0  0  0  0  0  0  0  0  0  0  0
    3.1424    6.3860    1.2107 H   0  0  0  0  0  0  0  0  0  0  0  0
    1.7085    7.0977    0.8883 H   0  0  0  0  0  0  0  0  0  0  0  0
    3.4927    8.4563    0.0876 H   0  0  0  0  0  0  0  0  0  0  0  0
    4.0176    7.2197   -0.8409 H   0  0  0  0  0  0  0  0  0  0  0  0
    2.5837    7.9314   -1.1634 H   0  0  0  0  0  0  0  0  0  0  0  0
    3.7710    5.4351   -1.5331 H   0  0  0  0  0  0  0  0  0  0  0  0
    3.9402    4.5064   -0.2006 H   0  0  0  0  0  0  0  0  0  0  0  0
    3.0312    3.9816   -1.4515 H   0  0  0  0  0  0  0  0  0  0  0  0
  1  2  2  0  0  0  0
  2  3  1  0  0  0  0
  3  4  1  0  0  0  0
  4  5  1  0  0  0  0
  5  6  2  0  0  0  0
  5  7  1  0  0  0  0
  7  8  1  0  0  0  0
  8  9  1  0  0  0  0
  9 10  1  0  0  0  0
 10 11  1  0  0  0  0
 11 12  1  0  0  0  0
 12 13  1  0  0  0  0
 12 14  1  0  0  0  0
  4 15  1  0  0  0  0
 15 16  1  0  0  0  0
 16 17  1  0  0  0  0
 17 18  2  0  0  0  0
 18 19  1  0  0  0  0
 19 20  1  0  0  0  0
 19 21  2  0  0  0  0
 21 22  1  0  0  0  0
 22 16  2  0  0  0  0
  2 23  1  0  0  0  0
 23 24  1  0  0  0  0
 24 25  1  0  0  0  0
 23 26  1  0  0  0  0
 12 27  1  0  0  0  0
  3 28  1  0  0  0  0
  4 29  1  0  0  0  0
  7 30  1  0  0  0  0
  8 31  1  0  0  0  0
  8 32  1  0  0  0  0
  9 33  1  0  0  0  0
  9 34  1  0  0  0  0
 10 35  1  0  0  0  0
 10 36  1  0  0  0  0
 11 37  1  0  0  0  0
 11 38  1  0  0  0  0
 13 39  1  0  0  0  0
 13 40  1  0  0  0  0
 13 41  1  0  0  0  0
 14 42  1  0  0  0  0
 14 43  1  0  0  0  0
 14 44  1  0  0  0  0
 15 45  1  0  0  0  0
 15 46  1  0  0  0  0
 17 47  1  0  0  0  0
 18 48  1  0  0  0  0
 20 49  1  0  0  0  0
 21 50  1  0  0  0  0
 22 51  1  0  0  0  0
 23 52  1  0  0  0  0
 24 53  1  0  0  0  0
 24 54  1  0  0  0  0
 25 55  1  0  0  0  0
 25 56  1  0  0  0  0
 25 57  1  0  0  0  0
 26 58  1  0  0  0  0
 26 59  1  0  0  0  0
 26 60  1  0  0  0  0
M  CHG  1  12   1
M  END
>  <result-rank>
20

>  <similarity>
0.950

>  <query-name>
LIG_A_1101_CCCC[R*]_2

>  <query-smiles>
O=C(NCCCC)[C@@H](NC(=O)C)Cc1ccc(O)cc1

>  <source>
REALspace_2019-12

>  <similarity-descriptor>
1.000;1.000;1.000;1.000;1.000;1.000;0.956;1.000;1.000;0.890;1.000;1.000;1.000;0.263

>  <similarity-descriptor-smiles>
c1ccccc1;C=O;N;C;C;C;C;C;N;O=CC;C;C;O;[NH+].C.C.C.C

>  <reaction-name>
s_22

>  <reagent1-name>
4836870

>  <reagent1-smiles>
[R1*]NCCCCN(C)C

>  <reagent2-name>
17064022

>  <reagent2-smiles>
[R1*]C(=O)C(NC(=O)C(CC)C)Cc1ccc(O)cc1

$$$$
s_22____7290494____17057108
          04022015093D 1   1.00000     0.00000     0
            
 56 56  0  0  0  0            999 V2000
   -3.7850   -1.7189    3.7562 S   0  0  0  0  0  0  0  0  0  0  0  0
   -3.1817   -0.2411    2.9030 C   0  0  0  0  0  0  0  0  0  0  0  0
   -1.6617   -0.2411    2.9030 C   0  0  0  0  0  0  0  0  0  0  0  0
   -1.1550    1.0000    2.1865 C   0  0  3  0  0  0  0  0  0  0  0  0
    0.3150    1.0000    2.1865 N   0  0  0  0  0  0  0  0  0  0  0  0
    1.0000    1.0000    1.0000 C   0  0  0  0  0  0  0  0  0  0  0  0
    0.4000    1.0000   -0.0392 O   0  0  0  0  0  0  0  0  0  0  0  0
    2.5200    1.0000    1.0000 C   0  0  3  0  0  0  0  0  0  0  0  0
    3.0100    1.0000   -0.3859 N   0  0  0  0  0  0  0  0  0  0  0  0
    3.7976   -0.0275   -0.8340 C   0  0  0  0  0  0  0  0  0  0  0  0
    4.0138   -0.9711   -0.1248 O   0  0  0  0  0  0  0  0  0  0  0  0
    4.3977    0.0277   -2.2295 C   0  0  0  0  0  0  0  0  0  0  0  0
    4.8450   -1.3646   -2.6441 C   0  0  0  0  0  0  0  0  0  0  0  0
    3.6531   -2.1413   -3.1792 C   0  0  0  0  0  0  0  0  0  0  0  0
    5.9057   -1.2544   -3.7273 C   0  0  0  0  0  0  0  0  0  0  0  0
    3.0267    2.2411    1.7165 C   0  0  0  0  0  0  0  0  0  0  0  0
    4.5467    2.2411    1.7165 C   0  0  0  0  0  0  0  0  0  0  0  0
    5.2311    1.6356    2.7653 C   0  0  0  0  0  0  0  0  0  0  0  0
    6.6219    1.6325    2.7691 C   0  0  0  0  0  0  0  0  0  0  0  0
    7.3116    2.2356    1.7220 C   0  0  0  0  0  0  0  0  0  0  0  0
    8.6614    2.2352    1.7220 O   0  0  0  0  0  0  0  0  0  0  0  0
    6.6320    2.8428    0.6710 C   0  0  0  0  0  0  0  0  0  0  0  0
    5.2412    2.8426    0.6720 C   0  0  0  0  0  0  0  0  0  0  0  0
   -1.6617    2.2411    2.9030 C   0  0  0  0  0  0  0  0  0  0  0  0
   -1.1883    3.4005    2.2336 O   0  0  0  0  0  0  0  0  0  0  0  0
   -5.5649   -1.4341    3.5918 C   0  0  0  0  0  0  0  0  0  0  0  0
   -3.5150    0.5754    3.3744 H   0  0  0  0  0  0  0  0  0  0  0  0
   -3.5150   -0.2411    1.9602 H   0  0  0  0  0  0  0  0  0  0  0  0
   -1.3283   -0.2411    3.8458 H   0  0  0  0  0  0  0  0  0  0  0  0
   -1.3283   -1.0576    2.4316 H   0  0  0  0  0  0  0  0  0  0  0  0
   -1.4883    1.0000    1.2436 H   0  0  0  0  0  0  0  0  0  0  0  0
    0.8150    1.0000    3.0525 H   0  0  0  0  0  0  0  0  0  0  0  0
    2.8533    0.1835    1.4714 H   0  0  0  0  0  0  0  0  0  0  0  0
    2.7684    1.7500   -1.0017 H   0  0  0  0  0  0  0  0  0  0  0  0
    5.1848    0.6445   -2.2297 H   0  0  0  0  0  0  0  0  0  0  0  0
    3.7111    0.3631   -2.8745 H   0  0  0  0  0  0  0  0  0  0  0  0
    5.2257   -1.8420   -1.8521 H   0  0  0  0  0  0  0  0  0  0  0  0
    3.9473   -3.0573   -3.4520 H   0  0  0  0  0  0  0  0  0  0  0  0
    2.9553   -2.2138   -2.4666 H   0  0  0  0  0  0  0  0  0  0  0  0
    3.2724   -1.6638   -3.9711 H   0  0  0  0  0  0  0  0  0  0  0  0
    6.1999   -2.1704   -4.0000 H   0  0  0  0  0  0  0  0  0  0  0  0
    5.5250   -0.7770   -4.5192 H   0  0  0  0  0  0  0  0  0  0  0  0
    6.6898   -0.7434   -3.3752 H   0  0  0  0  0  0  0  0  0  0  0  0
    2.6933    3.0576    1.2451 H   0  0  0  0  0  0  0  0  0  0  0  0
    2.6933    2.2411    2.6593 H   0  0  0  0  0  0  0  0  0  0  0  0
    4.7256    1.2046    3.5128 H   0  0  0  0  0  0  0  0  0  0  0  0
    7.1226    1.1999    3.5190 H   0  0  0  0  0  0  0  0  0  0  0  0
    9.1615    2.6674    0.9716 H   0  0  0  0  0  0  0  0  0  0  0  0
    7.1374    3.2742   -0.0763 H   0  0  0  0  0  0  0  0  0  0  0  0
    4.7405    3.2748   -0.0780 H   0  0  0  0  0  0  0  0  0  0  0  0
   -2.6617    2.2411    2.9030 H   0  0  0  0  0  0  0  0  0  0  0  0
   -1.3283    2.2411    3.8458 H   0  0  0  0  0  0  0  0  0  0  0  0
   -1.5217    4.2170    2.7050 H   0  0  0  0  0  0  0  0  0  0  0  0
   -6.0640   -2.1845    4.0250 H   0  0  0  0  0  0  0  0  0  0  0  0
   -5.8070   -0.5719    4.0368 H   0  0  0  0  0  0  0  0  0  0  0  0
   -5.8070   -1.3884    2.6226 H   0  0  0  0  0  0  0  0  0  0  0  0
  1  2  1  0  0  0  0
  2  3  1  0  0  0  0
  3  4  1  0  0  0  0
  4  5  1  0  0  0  0
  5  6  1  0  0  0  0
  6  7  2  0  0  0  0
  6  8  1  0  0  0  0
  8  9  1  0  0  0  0
  9 10  1  0  0  0  0
 10 11  2  0  0  0  0
 10 12  1  0  0  0  0
 12 13  1  0  0  0  0
 13 14  1  0  0  0  0
 13 15  1  0  0  0  0
  8 16  1  0  0  0  0
 16 17  1  0  0  0  0
 17 18  1  0  0  0  0
 18 19  2  0  0  0  0
 19 20  1  0  0  0  0
 20 21  1  0  0  0  0
 20 22  2  0  0  0  0
 22 23  1  0  0  0  0
 23 17  2  0  0  0  0
  4 24  1  0  0  0  0
 24 25  1  0  0  0  0
  1 26  1  0  0  0  0
  2 27  1  0  0  0  0
  2 28  1  0  0  0  0
  3 29  1  0  0  0  0
  3 30  1  0  0  0  0
  4 31  1  0  0  0  0
  5 32  1  0  0  0  0
  8 33  1  0  0  0  0
  9 34  1  0  0  0  0
 12 35  1  0  0  0  0
 12 36  1  0  0  0  0
 13 37  1  0  0  0  0
 14 38  1  0  0  0  0
 14 39  1  0  0  0  0
 14 40  1  0  0  0  0
 15 41  1  0  0  0  0
 15 42  1  0  0  0  0
 15 43  1  0  0  0  0
 16 44  1  0  0  0  0
 16 45  1  0  0  0  0
 18 46  1  0  0  0  0
 19 47  1  0  0  0  0
 21 48  1  0  0  0  0
 22 49  1  0  0  0  0
 23 50  1  0  0  0  0
 24 51  1  0  0  0  0
 24 52  1  0  0  0  0
 25 53  1  0  0  0  0
 26 54  1  0  0  0  0
 26 55  1  0  0  0  0
 26 56  1  0  0  0  0
M  END
>  <result-rank>
21

>  <similarity>
0.950

>  <query-name>
LIG_A_1101_CCCC[R*]_2

>  <query-smiles>
O=C(NCCCC)[C@@H](NC(=O)C)Cc1ccc(O)cc1

>  <source>
REALspace_2019-12

>  <similarity-descriptor>
1.000;1.000;1.000;0.973;0.973;1.000;0.951;1.000;1.000;1.000;0.949;1.000;1.000;0.316

>  <similarity-descriptor-smiles>
c1ccccc1;C=O;N;CC;CC;C;C;C;N;C=O;C;C;O;S.C.C.C.O.C

>  <reaction-name>
s_22

>  <reagent1-name>
7290494

>  <reagent1-smiles>
[R1*]NC(CO)CCSC

>  <reagent2-name>
17057108

>  <reagent2-smiles>
[R1*]C(=O)C(NC(=O)CC(C)C)Cc1ccc(O)cc1

$$$$
s_22____15151066____10968770
          04022015093D 1   1.00000     0.00000     0
            
 40 40  0  0  0  0            999 V2000
   -0.9589    7.0580   -1.4239 F   0  0  0  0  0  0  0  0  0  0  0  0
   -1.4908    5.9835   -0.8490 C   0  0  0  0  0  0  0  0  0  0  0  0
   -0.7935    4.7805   -0.8493 C   0  0  0  0  0  0  0  0  0  0  0  0
   -1.3686    3.6694   -0.2411 C   0  0  0  0  0  0  0  0  0  0  0  0
   -2.6200    3.7471    0.3619 C   0  0  0  0  0  0  0  0  0  0  0  0
   -3.3071    4.9566    0.3566 C   0  0  0  0  0  0  0  0  0  0  0  0
   -2.7429    6.0747   -0.2497 C   0  0  0  0  0  0  0  0  0  0  0  0
   -0.6089    2.3536   -0.2411 C   0  0  0  0  0  0  0  0  0  0  0  0
    0.2650    2.2731    1.0000 C   0  0  3  0  0  0  0  0  0  0  0  0
    1.0000    1.0000    1.0000 N   0  0  0  0  0  0  0  0  0  0  0  0
    2.3700    1.0000    1.0000 C   0  0  0  0  0  0  0  0  0  0  0  0
    2.9700    2.0392    1.0000 O   0  0  0  0  0  0  0  0  0  0  0  0
    3.1300   -0.3164    1.0000 C   0  0  3  0  0  0  0  0  0  0  0  0
    2.7628   -1.1134   -0.2411 C   0  0  0  0  0  0  0  0  0  0  0  0
    3.5228   -2.4298   -0.2411 C   0  0  0  0  0  0  0  0  0  0  0  0
    3.2015   -3.1272    0.8449 F   0  0  0  0  0  0  0  0  0  0  0  0
    3.2015   -3.1272   -1.3270 F   0  0  0  0  0  0  0  0  0  0  0  0
    4.6244   -0.0386    1.0000 C   0  0  0  0  0  0  0  0  0  0  0  0
   -0.6089    2.3536    2.2411 C   0  0  0  0  0  0  0  0  0  0  0  0
   -0.7132    3.3910    2.8352 O   0  0  0  0  0  0  0  0  0  0  0  0
   -1.2481    1.2905    2.6621 O   0  0  0  0  0  0  0  0  0  0  0  0
   -2.0645    1.3657    3.8216 C   0  0  0  0  0  0  0  0  0  0  0  0
    0.1067    4.7150   -1.2798 H   0  0  0  0  0  0  0  0  0  0  0  0
   -3.0219    2.9405    0.7954 H   0  0  0  0  0  0  0  0  0  0  0  0
   -4.2067    5.0225    0.7885 H   0  0  0  0  0  0  0  0  0  0  0  0
   -3.2374    6.9439   -0.2546 H   0  0  0  0  0  0  0  0  0  0  0  0
   -0.0340    2.3006   -1.0576 H   0  0  0  0  0  0  0  0  0  0  0  0
   -1.2587    1.5935   -0.2411 H   0  0  0  0  0  0  0  0  0  0  0  0
    0.9148    3.0331    1.0000 H   0  0  0  0  0  0  0  0  0  0  0  0
    0.5000    0.1340    1.0000 H   0  0  0  0  0  0  0  0  0  0  0  0
    2.8884   -0.8407    1.8165 H   0  0  0  0  0  0  0  0  0  0  0  0
    3.0044   -0.5890   -1.0576 H   0  0  0  0  0  0  0  0  0  0  0  0
    1.7796   -1.2961   -0.2411 H   0  0  0  0  0  0  0  0  0  0  0  0
    4.5060   -2.2470   -0.2411 H   0  0  0  0  0  0  0  0  0  0  0  0
    5.1244   -0.9046    1.0000 H   0  0  0  0  0  0  0  0  0  0  0  0
    4.8660    0.4858    0.1835 H   0  0  0  0  0  0  0  0  0  0  0  0
    4.8660    0.4858    1.8165 H   0  0  0  0  0  0  0  0  0  0  0  0
   -2.4744    0.4711    3.9992 H   0  0  0  0  0  0  0  0  0  0  0  0
   -1.5062    1.6381    4.6052 H   0  0  0  0  0  0  0  0  0  0  0  0
   -2.7878    2.0409    3.6767 H   0  0  0  0  0  0  0  0  0  0  0  0
  1  2  1  0  0  0  0
  2  3  1  0  0  0  0
  3  4  2  0  0  0  0
  4  5  1  0  0  0  0
  5  6  2  0  0  0  0
  6  7  1  0  0  0  0
  7  2  2  0  0  0  0
  4  8  1  0  0  0  0
  8  9  1  0  0  0  0
  9 10  1  0  0  0  0
 10 11  1  0  0  0  0
 11 12  2  0  0  0  0
 11 13  1  0  0  0  0
 13 14  1  0  0  0  0
 14 15  1  0  0  0  0
 15 16  1  0  0  0  0
 15 17  1  0  0  0  0
 13 18  1  0  0  0  0
  9 19  1  0  0  0  0
 19 20  2  0  0  0  0
 19 21  1  0  0  0  0
 21 22  1  0  0  0  0
  3 23  1  0  0  0  0
  5 24  1  0  0  0  0
  6 25  1  0  0  0  0
  7 26  1  0  0  0  0
  8 27  1  0  0  0  0
  8 28  1  0  0  0  0
  9 29  1  0  0  0  0
 10 30  1  0  0  0  0
 13 31  1  0  0  0  0
 14 32  1  0  0  0  0
 14 33  1  0  0  0  0
 15 34  1  0  0  0  0
 18 35  1  0  0  0  0
 18 36  1  0  0  0  0
 18 37  1  0  0  0  0
 22 38  1  0  0  0  0
 22 39  1  0  0  0  0
 22 40  1  0  0  0  0
M  END
>  <result-rank>
22

>  <similarity>
0.950

>  <query-name>
LIG_A_1101_CCCC[R*]_2

>  <query-smiles>
O=C(NCCCC)[C@@H](NC(=O)C)Cc1ccc(O)cc1

>  <source>
REALspace_2019-12

>  <similarity-descriptor>
0.983;0.852;0.852;0.998;0.998;0.986;0.986;1.000;1.000;0.855;0.994;1.000;0.0;0.0

>  <similarity-descriptor-smiles>
Fc1ccccc1;C=O;C=O;CC;CC;CC(F)F;CC(F)F;CN;CN;C(=O)O;C;C;;

>  <reaction-name>
s_22

>  <reagent1-name>
15151066

>  <reagent1-smiles>
[R1*]NC(C(=O)OC)Cc1cc(F)ccc1

>  <reagent2-name>
10968770

>  <reagent2-smiles>
[R1*]C(=O)C(CC(F)F)C

$$$$
s_22____8252164____17064022
          04022015093D 1   1.00000     0.00000     0
            
 55 55  0  0  0  0            999 V2000
    1.2557    4.7128    1.7726 O   0  0  0  0  0  0  0  0  0  0  0  0
    1.3899    4.4555    0.6082 C   0  0  0  0  0  0  0  0  0  0  0  0
    0.9144    3.2716    0.1091 N   0  0  0  0  0  0  0  0  0  0  0  0
    0.2400    2.3164    1.0000 C   0  0  3  0  0  0  0  0  0  0  0  0
    1.0000    1.0000    1.0000 C   0  0  0  0  0  0  0  0  0  0  0  0
    0.4000   -0.0392    1.0000 O   0  0  0  0  0  0  0  0  0  0  0  0
    2.3700    1.0000    1.0000 N   0  0  0  0  0  0  0  0  0  0  0  0
    3.1050   -0.2731    1.0000 C   0  0  0  0  0  0  0  0  0  0  0  0
    3.1428   -0.8363   -0.4113 C   0  0  0  0  0  0  0  0  0  0  0  0
    3.9028   -2.1526   -0.4113 C   0  0  0  0  0  0  0  0  0  0  0  0
    3.9406   -2.7158   -1.8226 C   0  0  0  0  0  0  0  0  0  0  0  0
    2.5211   -2.9504   -2.3127 C   0  0  0  0  0  0  0  0  0  0  0  0
    1.7981   -3.7025   -1.7197 O   0  0  0  0  0  0  0  0  0  0  0  0
    2.0670   -2.3031   -3.4315 N   0  0  0  0  0  0  0  0  0  0  0  0
   -1.1796    2.0818    0.5099 C   0  0  0  0  0  0  0  0  0  0  0  0
   -1.9396    3.3982    0.5099 C   0  0  0  0  0  0  0  0  0  0  0  0
   -1.9231    4.1980   -0.6281 C   0  0  0  0  0  0  0  0  0  0  0  0
   -2.6177    5.4030   -0.6330 C   0  0  0  0  0  0  0  0  0  0  0  0
   -3.3214    5.7930    0.5021 C   0  0  0  0  0  0  0  0  0  0  0  0
   -3.9966    6.9618    0.5018 O   0  0  0  0  0  0  0  0  0  0  0  0
   -3.3409    4.9970    1.6429 C   0  0  0  0  0  0  0  0  0  0  0  0
   -2.6449    3.7929    1.6420 C   0  0  0  0  0  0  0  0  0  0  0  0
    2.0873    5.4432   -0.3129 C   0  0  3  0  0  0  0  0  0  0  0  0
    1.1326    5.8671   -1.4172 C   0  0  0  0  0  0  0  0  0  0  0  0
    1.8300    6.8548   -2.3383 C   0  0  0  0  0  0  0  0  0  0  0  0
    2.5144    6.6649    0.4843 C   0  0  0  0  0  0  0  0  0  0  0  0
    1.0262    3.0571   -0.8612 H   0  0  0  0  0  0  0  0  0  0  0  0
    0.2151    2.6869    1.9285 H   0  0  0  0  0  0  0  0  0  0  0  0
    2.8700    1.8660    1.0000 H   0  0  0  0  0  0  0  0  0  0  0  0
    2.6462   -0.9228    1.6060 H   0  0  0  0  0  0  0  0  0  0  0  0
    4.0389   -0.1188    1.3225 H   0  0  0  0  0  0  0  0  0  0  0  0
    3.6016   -0.1865   -1.0173 H   0  0  0  0  0  0  0  0  0  0  0  0
    2.2089   -0.9906   -0.7338 H   0  0  0  0  0  0  0  0  0  0  0  0
    4.8367   -1.9983   -0.0888 H   0  0  0  0  0  0  0  0  0  0  0  0
    3.4440   -2.8024    0.1947 H   0  0  0  0  0  0  0  0  0  0  0  0
    4.3995   -2.0660   -2.4286 H   0  0  0  0  0  0  0  0  0  0  0  0
    4.4406   -3.5819   -1.8226 H   0  0  0  0  0  0  0  0  0  0  0  0
    2.6694   -1.6763   -3.9257 H   0  0  0  0  0  0  0  0  0  0  0  0
    1.1330   -2.4574   -3.7540 H   0  0  0  0  0  0  0  0  0  0  0  0
   -1.1547    1.7113   -0.4186 H   0  0  0  0  0  0  0  0  0  0  0  0
   -1.6384    1.4320    1.1159 H   0  0  0  0  0  0  0  0  0  0  0  0
   -1.4143    3.9080   -1.4387 H   0  0  0  0  0  0  0  0  0  0  0  0
   -2.6113    5.9847   -1.4463 H   0  0  0  0  0  0  0  0  0  0  0  0
   -4.5039    7.2464    1.3153 H   0  0  0  0  0  0  0  0  0  0  0  0
   -3.8492    5.2872    2.4537 H   0  0  0  0  0  0  0  0  0  0  0  0
   -2.6516    3.2109    2.4552 H   0  0  0  0  0  0  0  0  0  0  0  0
    2.8931    5.0104   -0.7169 H   0  0  0  0  0  0  0  0  0  0  0  0
    0.3267    6.3000   -1.0132 H   0  0  0  0  0  0  0  0  0  0  0  0
    0.8516    5.0634   -1.9416 H   0  0  0  0  0  0  0  0  0  0  0  0
    1.2020    7.1337   -3.0648 H   0  0  0  0  0  0  0  0  0  0  0  0
    2.1110    7.6585   -1.8139 H   0  0  0  0  0  0  0  0  0  0  0  0
    2.6359    6.4220   -2.7424 H   0  0  0  0  0  0  0  0  0  0  0  0
    2.9732    7.3147   -0.1218 H   0  0  0  0  0  0  0  0  0  0  0  0
    1.7085    7.0977    0.8883 H   0  0  0  0  0  0  0  0  0  0  0  0
    3.1424    6.3860    1.2107 H   0  0  0  0  0  0  0  0  0  0  0  0
  1  2  2  0  0  0  0
  2  3  1  0  0  0  0
  3  4  1  0  0  0  0
  4  5  1  0  0  0  0
  5  6  2  0  0  0  0
  5  7  1  0  0  0  0
  7  8  1  0  0  0  0
  8  9  1  0  0  0  0
  9 10  1  0  0  0  0
 10 11  1  0  0  0  0
 11 12  1  0  0  0  0
 12 13  2  0  0  0  0
 12 14  1  0  0  0  0
  4 15  1  0  0  0  0
 15 16  1  0  0  0  0
 16 17  1  0  0  0  0
 17 18  2  0  0  0  0
 18 19  1  0  0  0  0
 19 20  1  0  0  0  0
 19 21  2  0  0  0  0
 21 22  1  0  0  0  0
 22 16  2  0  0  0  0
  2 23  1  0  0  0  0
 23 24  1  0  0  0  0
 24 25  1  0  0  0  0
 23 26  1  0  0  0  0
  3 27  1  0  0  0  0
  4 28  1  0  0  0  0
  7 29  1  0  0  0  0
  8 30  1  0  0  0  0
  8 31  1  0  0  0  0
  9 32  1  0  0  0  0
  9 33  1  0  0  0  0
 10 34  1  0  0  0  0
 10 35  1  0  0  0  0
 11 36  1  0  0  0  0
 11 37  1  0  0  0  0
 14 38  1  0  0  0  0
 14 39  1  0  0  0  0
 15 40  1  0  0  0  0
 15 41  1  0  0  0  0
 17 42  1  0  0  0  0
 18 43  1  0  0  0  0
 20 44  1  0  0  0  0
 21 45  1  0  0  0  0
 22 46  1  0  0  0  0
 23 47  1  0  0  0  0
 24 48  1  0  0  0  0
 24 49  1  0  0  0  0
 25 50  1  0  0  0  0
 25 51  1  0  0  0  0
 25 52  1  0  0  0  0
 26 53  1  0  0  0  0
 26 54  1  0  0  0  0
 26 55  1  0  0  0  0
M  END
>  <result-rank>
23

>  <similarity>
0.949

>  <query-name>
LIG_A_1101_CCCC[R*]_2

>  <query-smiles>
O=C(NCCCC)[C@@H](NC(=O)C)Cc1ccc(O)cc1

>  <source>
REALspace_2019-12

>  <similarity-descriptor>
1.000;1.000;1.000;1.000;1.000;1.000;0.949;1.000;1.000;0.890;1.000;1.000;1.000;0.222

>  <similarity-descriptor-smiles>
c1ccccc1;C=O;N;C;C;C;C;C;N;O=CC;C;C;O;C=O.N.C.C

>  <reaction-name>
s_22

>  <reagent1-name>
8252164

>  <reagent1-smiles>
[R1*]NCCCCC(=O)N

>  <reagent2-name>
17064022

>  <reagent2-smiles>
[R1*]C(=O)C(NC(=O)C(CC)C)Cc1ccc(O)cc1

$$$$
s_22____7114868____107333
          04022015093D 1   1.00000     0.00000     0
            
 48 48  0  0  0  0            999 V2000
    7.9035    2.2680   -3.3792 Br  0  0  0  0  0  0  0  0  0  0  0  0
    6.8555    1.5212   -1.9009 C   0  0  0  0  0  0  0  0  0  0  0  0
    6.1911    0.3108   -2.0699 C   0  0  0  0  0  0  0  0  0  0  0  0
    5.4489   -0.2143   -1.0171 C   0  0  0  0  0  0  0  0  0  0  0  0
    5.3792    0.4745    0.1895 C   0  0  0  0  0  0  0  0  0  0  0  0
    6.0463    1.6846    0.3516 C   0  0  0  0  0  0  0  0  0  0  0  0
    6.7903    2.2158   -0.6969 C   0  0  0  0  0  0  0  0  0  0  0  0
    4.5670   -0.1053    1.3359 C   0  0  3  0  0  0  0  0  0  0  0  0
    5.1432   -1.3954    1.7414 N   0  0  0  0  0  0  0  0  0  0  0  0
    5.6000   -1.5696    3.0212 C   0  0  0  0  0  0  0  0  0  0  0  0
    5.5297   -0.6691    3.8111 O   0  0  0  0  0  0  0  0  0  0  0  0
    6.1958   -2.9037    3.4405 C   0  0  0  0  0  0  0  0  0  0  0  0
    3.1300   -0.3113    0.8853 C   0  0  0  0  0  0  0  0  0  0  0  0
    2.3700    1.0000    1.0000 C   0  0  0  0  0  0  0  0  0  0  0  0
    2.9700    2.0353    1.0906 O   0  0  0  0  0  0  0  0  0  0  0  0
    1.0000    1.0000    1.0000 N   0  0  0  0  0  0  0  0  0  0  0  0
    0.2650    2.2731    1.0000 C   0  0  0  0  0  0  0  0  0  0  0  0
    0.2272    2.8363   -0.4113 C   0  0  3  0  0  0  0  0  0  0  0  0
   -0.4828    4.0660   -0.4113 O   0  0  0  0  0  0  0  0  0  0  0  0
   -0.4702    1.8486   -1.3325 C   0  0  0  0  0  0  0  0  0  0  0  0
   -0.5080    2.4118   -2.7438 C   0  0  0  0  0  0  0  0  0  0  0  0
    0.9115    2.6463   -3.2339 C   0  0  0  0  0  0  0  0  0  0  0  0
   -1.2054    1.4241   -3.6649 C   0  0  0  0  0  0  0  0  0  0  0  0
    6.2465   -0.1776   -2.9407 H   0  0  0  0  0  0  0  0  0  0  0  0
    4.9672   -1.0837   -1.1272 H   0  0  0  0  0  0  0  0  0  0  0  0
    5.9909    2.1729    1.2226 H   0  0  0  0  0  0  0  0  0  0  0  0
    7.2719    3.0853   -0.5869 H   0  0  0  0  0  0  0  0  0  0  0  0
    4.5860    0.5266    2.1108 H   0  0  0  0  0  0  0  0  0  0  0  0
    5.2017   -2.1459    1.0831 H   0  0  0  0  0  0  0  0  0  0  0  0
    6.1768   -3.5355    2.6656 H   0  0  0  0  0  0  0  0  0  0  0  0
    7.1411   -2.7681    3.7369 H   0  0  0  0  0  0  0  0  0  0  0  0
    5.6613   -3.2851    4.1947 H   0  0  0  0  0  0  0  0  0  0  0  0
    3.1199   -0.6203   -0.0657 H   0  0  0  0  0  0  0  0  0  0  0  0
    2.6947   -1.0007    1.4643 H   0  0  0  0  0  0  0  0  0  0  0  0
    0.5000    0.1340    1.0000 H   0  0  0  0  0  0  0  0  0  0  0  0
    0.7238    2.9228    1.6060 H   0  0  0  0  0  0  0  0  0  0  0  0
   -0.6689    2.1188    1.3225 H   0  0  0  0  0  0  0  0  0  0  0  0
    1.1611    2.9906   -0.7338 H   0  0  0  0  0  0  0  0  0  0  0  0
   -0.5077    4.4366   -1.3398 H   0  0  0  0  0  0  0  0  0  0  0  0
   -1.4041    1.6943   -1.0100 H   0  0  0  0  0  0  0  0  0  0  0  0
    0.0298    0.9826   -1.3325 H   0  0  0  0  0  0  0  0  0  0  0  0
   -1.0080    3.2778   -2.7438 H   0  0  0  0  0  0  0  0  0  0  0  0
    0.8866    3.0169   -4.1624 H   0  0  0  0  0  0  0  0  0  0  0  0
    1.3703    3.2961   -2.6279 H   0  0  0  0  0  0  0  0  0  0  0  0
    1.4115    1.7803   -3.2339 H   0  0  0  0  0  0  0  0  0  0  0  0
   -1.2303    1.7946   -4.5934 H   0  0  0  0  0  0  0  0  0  0  0  0
   -0.7054    0.5581   -3.6649 H   0  0  0  0  0  0  0  0  0  0  0  0
   -2.1393    1.2698   -3.3425 H   0  0  0  0  0  0  0  0  0  0  0  0
  1  2  1  0  0  0  0
  2  3  1  0  0  0  0
  3  4  2  0  0  0  0
  4  5  1  0  0  0  0
  5  6  2  0  0  0  0
  6  7  1  0  0  0  0
  7  2  2  0  0  0  0
  5  8  1  0  0  0  0
  8  9  1  0  0  0  0
  9 10  1  0  0  0  0
 10 11  2  0  0  0  0
 10 12  1  0  0  0  0
  8 13  1  0  0  0  0
 13 14  1  0  0  0  0
 14 15  2  0  0  0  0
 14 16  1  0  0  0  0
 16 17  1  0  0  0  0
 17 18  1  0  0  0  0
 18 19  1  0  0  0  0
 18 20  1  0  0  0  0
 20 21  1  0  0  0  0
 21 22  1  0  0  0  0
 21 23  1  0  0  0  0
  3 24  1  0  0  0  0
  4 25  1  0  0  0  0
  6 26  1  0  0  0  0
  7 27  1  0  0  0  0
  8 28  1  0  0  0  0
  9 29  1  0  0  0  0
 12 30  1  0  0  0  0
 12 31  1  0  0  0  0
 12 32  1  0  0  0  0
 13 33  1  0  0  0  0
 13 34  1  0  0  0  0
 16 35  1  0  0  0  0
 17 36  1  0  0  0  0
 17 37  1  0  0  0  0
 18 38  1  0  0  0  0
 19 39  1  0  0  0  0
 20 40  1  0  0  0  0
 20 41  1  0  0  0  0
 21 42  1  0  0  0  0
 22 43  1  0  0  0  0
 22 44  1  0  0  0  0
 22 45  1  0  0  0  0
 23 46  1  0  0  0  0
 23 47  1  0  0  0  0
 23 48  1  0  0  0  0
M  END
>  <result-rank>
24

>  <similarity>
0.949

>  <query-name>
LIG_A_1101_CCCC[R*]_2

>  <query-smiles>
O=C(NCCCC)[C@@H](NC(=O)C)Cc1ccc(O)cc1

>  <source>
REALspace_2019-12

>  <similarity-descriptor>
0.962;1.000;1.000;0.973;0.973;1.000;0.883;1.000;1.000;1.000;1.000;1.000;0.0;0.200

>  <similarity-descriptor-smiles>
Brc1ccccc1;C=O;N;CC;CC;C;C;CC;N;C=O;C;CC;;O.C.C

>  <reaction-name>
s_22

>  <reagent1-name>
7114868

>  <reagent1-smiles>
[R1*]NCC(O)CC(C)C

>  <reagent2-name>
107333

>  <reagent2-smiles>
[R1*]C(=O)CC(NC(=O)C)c1ccc(Br)cc1

$$$$
s_270062____7610942____8147258
          04022015093D 1   1.00000     0.00000     0
            
 36 37  0  0  0  0            999 V2000
    3.6182    1.9403    4.8346 Cl  0  0  0  0  0  0  0  0  0  0  0  0
    3.9607    2.2828    3.1218 C   0  0  0  0  0  0  0  0  0  0  0  0
    3.0831    1.4052    2.2442 C   0  0  0  0  0  0  0  0  0  0  0  0
    3.4716    0.3240    1.8978 O   0  0  0  0  0  0  0  0  0  0  0  0
    1.8487    1.8487    1.8487 N   0  0  0  0  0  0  0  0  0  0  0  0
    1.0000    1.0000    1.0000 C   0  0  3  0  0  0  0  0  0  0  0  0
    0.7075    1.7208   -0.3059 C   0  0  0  0  0  0  0  0  0  0  0  0
   -0.4158    1.7705   -0.7252 O   0  0  0  0  0  0  0  0  0  0  0  0
    1.7262    2.3138   -1.0041 N   0  0  0  0  0  0  0  0  0  0  0  0
    1.4301    3.1030   -2.2064 C   0  0  0  0  0  0  0  0  0  0  0  0
    2.4327    4.2026   -2.4063 C   0  0  0  0  0  0  0  0  0  0  0  0
    1.0652    4.5208   -1.8724 C   0  0  0  0  0  0  0  0  0  0  0  0
   -0.3059    0.7075    1.7208 C   0  0  0  0  0  0  0  0  0  0  0  0
   -0.0133   -0.0135    3.0269 C   0  0  0  0  0  0  0  0  0  0  0  0
    0.1956    0.7227    4.1885 C   0  0  0  0  0  0  0  0  0  0  0  0
    0.4639    0.0591    5.3813 C   0  0  0  0  0  0  0  0  0  0  0  0
    0.5203   -1.3305    5.4067 C   0  0  0  0  0  0  0  0  0  0  0  0
    0.3095   -2.0555    4.2404 C   0  0  0  0  0  0  0  0  0  0  0  0
    0.0410   -1.4036    3.0412 C   0  0  0  0  0  0  0  0  0  0  0  0
    4.9230    2.0904    2.9293 H   0  0  0  0  0  0  0  0  0  0  0  0
    3.7683    3.2451    2.9293 H   0  0  0  0  0  0  0  0  0  0  0  0
    1.5250    2.7498    2.1374 H   0  0  0  0  0  0  0  0  0  0  0  0
    1.4742    0.1409    0.8075 H   0  0  0  0  0  0  0  0  0  0  0  0
    2.6714    2.2091   -0.6949 H   0  0  0  0  0  0  0  0  0  0  0  0
    1.0165    2.6589   -3.0013 H   0  0  0  0  0  0  0  0  0  0  0  0
    2.6868    4.4857   -3.3311 H   0  0  0  0  0  0  0  0  0  0  0  0
    3.2308    4.2666   -1.8071 H   0  0  0  0  0  0  0  0  0  0  0  0
    0.9527    4.7965   -0.9178 H   0  0  0  0  0  0  0  0  0  0  0  0
    0.4087    5.0156   -2.4418 H   0  0  0  0  0  0  0  0  0  0  0  0
   -0.7801    1.5666    1.9133 H   0  0  0  0  0  0  0  0  0  0  0  0
   -0.8832    0.1301    1.1435 H   0  0  0  0  0  0  0  0  0  0  0  0
    0.1533    1.7216    4.1663 H   0  0  0  0  0  0  0  0  0  0  0  0
    0.6162    0.5811    6.2206 H   0  0  0  0  0  0  0  0  0  0  0  0
    0.7125   -1.8076    6.2643 H   0  0  0  0  0  0  0  0  0  0  0  0
    0.3511   -3.0544    4.2632 H   0  0  0  0  0  0  0  0  0  0  0  0
   -0.1106   -1.9262    2.2022 H   0  0  0  0  0  0  0  0  0  0  0  0
  1  2  1  0  0  0  0
  2  3  1  0  0  0  0
  3  4  2  0  0  0  0
  3  5  1  0  0  0  0
  5  6  1  0  0  0  0
  6  7  1  0  0  0  0
  7  8  2  0  0  0  0
  7  9  1  0  0  0  0
  9 10  1  0  0  0  0
 10 11  1  0  0  0  0
 11 12  1  0  0  0  0
 12 10  1  0  0  0  0
  6 13  1  0  0  0  0
 13 14  1  0  0  0  0
 14 15  1  0  0  0  0
 15 16  2  0  0  0  0
 16 17  1  0  0  0  0
 17 18  2  0  0  0  0
 18 19  1  0  0  0  0
 19 14  2  0  0  0  0
  2 20  1  0  0  0  0
  2 21  1  0  0  0  0
  5 22  1  0  0  0  0
  6 23  1  0  0  0  0
  9 24  1  0  0  0  0
 10 25  1  0  0  0  0
 11 26  1  0  0  0  0
 11 27  1  0  0  0  0
 12 28  1  0  0  0  0
 12 29  1  0  0  0  0
 13 30  1  0  0  0  0
 13 31  1  0  0  0  0
 15 32  1  0  0  0  0
 16 33  1  0  0  0  0
 17 34  1  0  0  0  0
 18 35  1  0  0  0  0
 19 36  1  0  0  0  0
M  END
>  <result-rank>
25

>  <similarity>
0.949

>  <query-name>
LIG_A_1101_CCCC[R*]_2

>  <query-smiles>
O=C(NCCCC)[C@@H](NC(=O)C)Cc1ccc(O)cc1

>  <source>
REALspace_2019-12

>  <similarity-descriptor>
0.960;1.000;1.000;0.887;0.887;0.887;0.0;1.000;1.000;1.000;0.951;1.000;0.0;0.0

>  <similarity-descriptor-smiles>
c1ccccc1;C=O;N;C1CC1;C1CC1;C1CC1;;C;N;C=O;ClC;C;;

>  <reaction-name>
s_270062

>  <reagent1-name>
7610942

>  <reagent1-smiles>
[R1*]NC(C(=O)NC1CC1)Cc2ccccc2

>  <reagent2-name>
8147258

>  <reagent2-smiles>
[R1*]C(=O)CCl

$$$$
s_22____10390142____15065924
          04022015093D 1   1.00000     0.00000     0
            
 51 51  0  0  0  0            999 V2000
    0.3966   -1.9559    1.5363 Cl  0  0  0  0  0  0  0  0  0  0  0  0
   -0.6639   -0.6059    2.0070 C   0  0  0  0  0  0  0  0  0  0  0  0
   -0.3062    0.7074    1.7210 C   0  0  0  0  0  0  0  0  0  0  0  0
   -1.1442    1.7529    2.0941 C   0  0  0  0  0  0  0  0  0  0  0  0
   -2.3384    1.4806    2.7529 C   0  0  0  0  0  0  0  0  0  0  0  0
   -2.6908    0.1657    3.0368 C   0  0  0  0  0  0  0  0  0  0  0  0
   -1.8568   -0.8843    2.6663 C   0  0  0  0  0  0  0  0  0  0  0  0
    1.0000    1.0000    1.0000 C   0  0  3  0  0  0  0  0  0  0  0  0
    1.8776    1.8776    1.8776 C   0  0  0  0  0  0  0  0  0  0  0  0
    1.9338    3.0596    1.6786 O   0  0  0  0  0  0  0  0  0  0  0  0
    2.6044    1.3190    2.8957 N   0  0  0  0  0  0  0  0  0  0  0  0
    3.4531    2.1677    3.7445 C   0  0  0  0  0  0  0  0  0  0  0  0
    4.1458    1.3079    4.7891 C   0  0  0  0  0  0  0  0  0  0  0  0
    3.1012    0.6152    5.6489 C   0  0  0  0  0  0  0  0  0  0  0  0
    2.2414    1.6599    6.3416 C   0  0  0  0  0  0  0  0  0  0  0  0
    1.3273    1.0537    7.0939 F   0  0  0  0  0  0  0  0  0  0  0  0
    0.7075    1.7208   -0.3059 C   0  0  0  0  0  0  0  0  0  0  0  0
   -0.1412    0.8721   -1.1546 N   0  0  0  0  0  0  0  0  0  0  0  0
   -0.5367    1.3156   -2.3890 C   0  0  0  0  0  0  0  0  0  0  0  0
   -1.2295    0.6227   -3.0818 O   0  0  0  0  0  0  0  0  0  0  0  0
   -0.1585    2.4959   -2.8130 O   0  0  0  0  0  0  0  0  0  0  0  0
   -0.5685    2.9556   -4.0925 C   0  0  0  0  0  0  0  0  0  0  0  0
   -0.0597    2.0013   -5.1607 C   0  0  0  0  0  0  0  0  0  0  0  0
   -2.0863    3.0147   -4.1473 C   0  0  0  0  0  0  0  0  0  0  0  0
    0.0018    4.3428   -4.3392 C   0  0  0  0  0  0  0  0  0  0  0  0
   -0.8887    2.6978    1.8891 H   0  0  0  0  0  0  0  0  0  0  0  0
   -2.9432    2.2299    3.0223 H   0  0  0  0  0  0  0  0  0  0  0  0
   -3.5501   -0.0265    3.5108 H   0  0  0  0  0  0  0  0  0  0  0  0
   -2.1121   -1.8291    2.8718 H   0  0  0  0  0  0  0  0  0  0  0  0
    1.4742    0.1409    0.8075 H   0  0  0  0  0  0  0  0  0  0  0  0
    2.5576    0.3340    3.0616 H   0  0  0  0  0  0  0  0  0  0  0  0
    2.8874    2.8550    4.2002 H   0  0  0  0  0  0  0  0  0  0  0  0
    4.1404    2.6235    3.1788 H   0  0  0  0  0  0  0  0  0  0  0  0
    4.7232    1.8853    5.3665 H   0  0  0  0  0  0  0  0  0  0  0  0
    4.7115    0.6207    4.3334 H   0  0  0  0  0  0  0  0  0  0  0  0
    2.5238    0.0379    5.0715 H   0  0  0  0  0  0  0  0  0  0  0  0
    3.5569    0.0496    6.3362 H   0  0  0  0  0  0  0  0  0  0  0  0
    2.8187    2.2372    6.9190 H   0  0  0  0  0  0  0  0  0  0  0  0
    1.7856    2.2255    5.6544 H   0  0  0  0  0  0  0  0  0  0  0  0
    0.2333    2.5799   -0.1134 H   0  0  0  0  0  0  0  0  0  0  0  0
    1.5666    1.9133   -0.7801 H   0  0  0  0  0  0  0  0  0  0  0  0
   -0.4299   -0.0289   -0.8309 H   0  0  0  0  0  0  0  0  0  0  0  0
   -0.3483    2.3250   -6.0617 H   0  0  0  0  0  0  0  0  0  0  0  0
    0.9389    1.9625   -5.1246 H   0  0  0  0  0  0  0  0  0  0  0  0
   -0.4348    1.0887   -4.9984 H   0  0  0  0  0  0  0  0  0  0  0  0
   -2.3750    3.3384   -5.0484 H   0  0  0  0  0  0  0  0  0  0  0  0
   -2.4615    2.1020   -3.9850 H   0  0  0  0  0  0  0  0  0  0  0  0
   -2.4211    3.6425   -3.4446 H   0  0  0  0  0  0  0  0  0  0  0  0
   -0.2869    4.6665   -5.2402 H   0  0  0  0  0  0  0  0  0  0  0  0
   -0.3329    4.9706   -3.6365 H   0  0  0  0  0  0  0  0  0  0  0  0
    1.0004    4.3039   -4.3031 H   0  0  0  0  0  0  0  0  0  0  0  0
  1  2  1  0  0  0  0
  2  3  1  0  0  0  0
  3  4  2  0  0  0  0
  4  5  1  0  0  0  0
  5  6  2  0  0  0  0
  6  7  1  0  0  0  0
  7  2  2  0  0  0  0
  3  8  1  0  0  0  0
  8  9  1  0  0  0  0
  9 10  2  0  0  0  0
  9 11  1  0  0  0  0
 11 12  1  0  0  0  0
 12 13  1  0  0  0  0
 13 14  1  0  0  0  0
 14 15  1  0  0  0  0
 15 16  1  0  0  0  0
  8 17  1  0  0  0  0
 17 18  1  0  0  0  0
 18 19  1  0  0  0  0
 19 20  2  0  0  0  0
 19 21  1  0  0  0  0
 21 22  1  0  0  0  0
 22 23  1  0  0  0  0
 22 24  1  0  0  0  0
 22 25  1  0  0  0  0
  4 26  1  0  0  0  0
  5 27  1  0  0  0  0
  6 28  1  0  0  0  0
  7 29  1  0  0  0  0
  8 30  1  0  0  0  0
 11 31  1  0  0  0  0
 12 32  1  0  0  0  0
 12 33  1  0  0  0  0
 13 34  1  0  0  0  0
 13 35  1  0  0  0  0
 14 36  1  0  0  0  0
 14 37  1  0  0  0  0
 15 38  1  0  0  0  0
 15 39  1  0  0  0  0
 17 40  1  0  0  0  0
 17 41  1  0  0  0  0
 18 42  1  0  0  0  0
 23 43  1  0  0  0  0
 23 44  1  0  0  0  0
 23 45  1  0  0  0  0
 24 46  1  0  0  0  0
 24 47  1  0  0  0  0
 24 48  1  0  0  0  0
 25 49  1  0  0  0  0
 25 50  1  0  0  0  0
 25 51  1  0  0  0  0
M  END
>  <result-rank>
26

>  <similarity>
0.949

>  <query-name>
LIG_A_1101_CCCC[R*]_2

>  <query-smiles>
O=C(NCCCC)[C@@H](NC(=O)C)Cc1ccc(O)cc1

>  <source>
REALspace_2019-12

>  <similarity-descriptor>
0.968;1.000;1.000;1.000;1.000;0.993;0.993;1.000;1.000;0.851;0.971;1.000;0.0;0.125

>  <similarity-descriptor-smiles>
Clc1ccccc1;C=O;N;C;C;CCF;CCF;CC;N;C(=O)O;CC;CC;;C.C

>  <reaction-name>
s_22

>  <reagent1-name>
10390142

>  <reagent1-smiles>
[R1*]NCCCCF

>  <reagent2-name>
15065924

>  <reagent2-smiles>
[R1*]C(=O)C(c1c(Cl)cccc1)CNC(=O)OC(C)(C)C

$$$$
s_240690b____15151100____11954850
          04022015093D 1   1.00000     0.00000     0
            
 43 43  0  0  0  0            999 V2000
    1.7529    2.2275   -3.7104 F   0  0  0  0  0  0  0  0  0  0  0  0
    2.0302    1.0455   -3.1684 C   0  0  0  0  0  0  0  0  0  0  0  0
    2.8291    0.9740   -2.0325 C   0  0  0  0  0  0  0  0  0  0  0  0
    3.1053   -0.2731   -1.4817 C   0  0  0  0  0  0  0  0  0  0  0  0
    2.5964   -1.4377   -2.0476 C   0  0  0  0  0  0  0  0  0  0  0  0
    1.7976   -1.3531   -3.1832 C   0  0  0  0  0  0  0  0  0  0  0  0
    1.5151   -0.1114   -3.7442 C   0  0  0  0  0  0  0  0  0  0  0  0
    3.9789   -0.3536   -0.2411 C   0  0  0  0  0  0  0  0  0  0  0  0
    3.1050   -0.2731    1.0000 C   0  0  3  0  0  0  0  0  0  0  0  0
    2.3700    1.0000    1.0000 N   0  0  0  0  0  0  0  0  0  0  0  0
    1.0000    1.0000    1.0000 C   0  0  0  0  0  0  0  0  0  0  0  0
    0.4000   -0.0392    1.0000 O   0  0  0  0  0  0  0  0  0  0  0  0
    0.2400    2.3164    1.0000 C   0  0  0  0  0  0  0  0  0  0  0  0
   -1.2052    2.0477    1.0000 N   0  3  0  0  0  0  0  0  0  0  0  0
   -1.9402    3.3208    1.0000 C   0  0  0  0  0  0  0  0  0  0  0  0
   -3.4347    3.0431    1.0000 C   0  0  0  0  0  0  0  0  0  0  0  0
   -1.5730    4.1179    2.2411 C   0  0  0  0  0  0  0  0  0  0  0  0
    3.9789   -0.3536    2.2411 C   0  0  0  0  0  0  0  0  0  0  0  0
    5.0852   -0.8125    2.1672 O   0  0  0  0  0  0  0  0  0  0  0  0
    3.5243    0.0780    3.3914 O   0  0  0  0  0  0  0  0  0  0  0  0
    4.3406    0.0028    4.5508 C   0  0  0  0  0  0  0  0  0  0  0  0
   -1.4468    1.5234    0.1835 H   0  0  0  0  0  0  0  0  0  0  0  0
   -1.4468    1.5234    1.8165 H   0  0  0  0  0  0  0  0  0  0  0  0
    3.1990    1.8056   -1.6184 H   0  0  0  0  0  0  0  0  0  0  0  0
    2.8032   -2.3279   -1.6416 H   0  0  0  0  0  0  0  0  0  0  0  0
    1.4263   -2.1846   -3.5965 H   0  0  0  0  0  0  0  0  0  0  0  0
    0.9418   -0.0506   -4.5613 H   0  0  0  0  0  0  0  0  0  0  0  0
    4.6287    0.4065   -0.2411 H   0  0  0  0  0  0  0  0  0  0  0  0
    4.4789   -1.2196   -0.2411 H   0  0  0  0  0  0  0  0  0  0  0  0
    2.4552   -1.0331    1.0000 H   0  0  0  0  0  0  0  0  0  0  0  0
    2.8700    1.8660    1.0000 H   0  0  0  0  0  0  0  0  0  0  0  0
    0.4816    2.8407    1.8165 H   0  0  0  0  0  0  0  0  0  0  0  0
    0.4816    2.8407    0.1835 H   0  0  0  0  0  0  0  0  0  0  0  0
   -1.6987    3.8452    0.1835 H   0  0  0  0  0  0  0  0  0  0  0  0
   -3.9347    3.9091    1.0000 H   0  0  0  0  0  0  0  0  0  0  0  0
   -3.6762    2.5187    0.1835 H   0  0  0  0  0  0  0  0  0  0  0  0
   -3.6762    2.5187    1.8165 H   0  0  0  0  0  0  0  0  0  0  0  0
   -2.0730    4.9839    2.2411 H   0  0  0  0  0  0  0  0  0  0  0  0
   -1.8146    3.5935    3.0576 H   0  0  0  0  0  0  0  0  0  0  0  0
   -0.5899    4.3006    2.2411 H   0  0  0  0  0  0  0  0  0  0  0  0
    3.8415    0.3726    5.3345 H   0  0  0  0  0  0  0  0  0  0  0  0
    4.5802   -0.9517    4.7284 H   0  0  0  0  0  0  0  0  0  0  0  0
    5.1751    0.5345    4.4060 H   0  0  0  0  0  0  0  0  0  0  0  0
  1  2  1  0  0  0  0
  2  3  1  0  0  0  0
  3  4  2  0  0  0  0
  4  5  1  0  0  0  0
  5  6  2  0  0  0  0
  6  7  1  0  0  0  0
  7  2  2  0  0  0  0
  4  8  1  0  0  0  0
  8  9  1  0  0  0  0
  9 10  1  0  0  0  0
 10 11  1  0  0  0  0
 11 12  2  0  0  0  0
 11 13  1  0  0  0  0
 13 14  1  0  0  0  0
 14 15  1  0  0  0  0
 15 16  1  0  0  0  0
 15 17  1  0  0  0  0
  9 18  1  0  0  0  0
 18 19  2  0  0  0  0
 18 20  1  0  0  0  0
 20 21  1  0  0  0  0
 14 22  1  0  0  0  0
 14 23  1  0  0  0  0
  3 24  1  0  0  0  0
  5 25  1  0  0  0  0
  6 26  1  0  0  0  0
  7 27  1  0  0  0  0
  8 28  1  0  0  0  0
  8 29  1  0  0  0  0
  9 30  1  0  0  0  0
 10 31  1  0  0  0  0
 13 32  1  0  0  0  0
 13 33  1  0  0  0  0
 15 34  1  0  0  0  0
 16 35  1  0  0  0  0
 16 36  1  0  0  0  0
 16 37  1  0  0  0  0
 17 38  1  0  0  0  0
 17 39  1  0  0  0  0
 17 40  1  0  0  0  0
 21 41  1  0  0  0  0
 21 42  1  0  0  0  0
 21 43  1  0  0  0  0
M  CHG  1  14   1
M  END
>  <result-rank>
27

>  <similarity>
0.949

>  <query-name>
LIG_A_1101_CCCC[R*]_2

>  <query-smiles>
O=C(NCCCC)[C@@H](NC(=O)C)Cc1ccc(O)cc1

>  <source>
REALspace_2019-12

>  <similarity-descriptor>
0.983;1.000;0.807;0.807;0.995;0.995;1.000;1.000;1.000;0.855;0.994;1.000;0.0;0.0

>  <similarity-descriptor-smiles>
Fc1ccccc1;C=O;C[NH2+];C[NH2+];CC;CC;C;CN;CN;C(=O)O;C;C;;

>  <reaction-name>
s_240690b

>  <reagent1-name>
15151100

>  <reagent1-smiles>
[R1*]NC(C(=O)OC)Cc1cc(F)ccc1

>  <reagent2-name>
11954850

>  <reagent2-smiles>
[R1*]C(=O)CNC(C)C

$$$$
s_22____8902424____17064022
          04022015093D 1   1.00000     0.00000     0
            
 58 59  0  0  0  0            999 V2000
    3.0725    1.7997    1.7997 O   0  0  0  0  0  0  0  0  0  0  0  0
    1.8776    1.8776    1.8776 C   0  0  0  0  0  0  0  0  0  0  0  0
    1.3043    2.7574    2.7574 N   0  0  0  0  0  0  0  0  0  0  0  0
    2.1530    3.6061    3.6061 C   0  0  3  0  0  0  0  0  0  0  0  0
    2.4456    4.9120    2.8853 C   0  0  0  0  0  0  0  0  0  0  0  0
    3.3231    5.7896    3.7629 C   0  0  0  0  0  0  0  0  0  0  0  0
    3.6158    7.0960    3.0418 C   0  0  0  0  0  0  0  0  0  0  0  0
    2.3469    7.8369    2.7358 C   0  0  0  0  0  0  0  0  0  0  0  0
    3.0752    7.1114    1.6409 C   0  0  0  0  0  0  0  0  0  0  0  0
    1.4322    3.8987    4.9120 C   0  0  0  0  0  0  0  0  0  0  0  0
    1.0000    1.0000    1.0000 C   0  0  3  0  0  0  0  0  0  0  0  0
    0.7171    1.6971   -0.2629 N   0  0  0  0  0  0  0  0  0  0  0  0
    1.5540    1.5376   -1.3358 C   0  0  0  0  0  0  0  0  0  0  0  0
    2.5180    0.8288   -1.2446 O   0  0  0  0  0  0  0  0  0  0  0  0
    1.2615    2.2584   -2.6416 C   0  0  3  0  0  0  0  0  0  0  0  0
    1.9440    3.6165   -2.6346 C   0  0  0  0  0  0  0  0  0  0  0  0
    1.6515    4.3373   -3.9405 C   0  0  0  0  0  0  0  0  0  0  0  0
    1.7873    1.4331   -3.8047 C   0  0  0  0  0  0  0  0  0  0  0  0
   -0.3059    0.7075    1.7208 C   0  0  0  0  0  0  0  0  0  0  0  0
   -1.1835   -0.1701    0.8432 C   0  0  0  0  0  0  0  0  0  0  0  0
   -1.0842   -1.5540    0.9425 C   0  0  0  0  0  0  0  0  0  0  0  0
   -1.8857   -2.3610    0.1420 C   0  0  0  0  0  0  0  0  0  0  0  0
   -2.7781   -1.7726   -0.7486 C   0  0  0  0  0  0  0  0  0  0  0  0
   -3.5982   -2.5925   -1.5681 O   0  0  0  0  0  0  0  0  0  0  0  0
   -2.8811   -0.3891   -0.8520 C   0  0  0  0  0  0  0  0  0  0  0  0
   -2.0774    0.4131   -0.0489 C   0  0  0  0  0  0  0  0  0  0  0  0
    0.3085    2.8223    2.8223 H   0  0  0  0  0  0  0  0  0  0  0  0
    3.0121    3.1319    3.7986 H   0  0  0  0  0  0  0  0  0  0  0  0
    1.5864    5.3862    2.6929 H   0  0  0  0  0  0  0  0  0  0  0  0
    2.9198    4.7195    2.0262 H   0  0  0  0  0  0  0  0  0  0  0  0
    2.8489    5.9820    4.6220 H   0  0  0  0  0  0  0  0  0  0  0  0
    4.1822    5.3153    3.9553 H   0  0  0  0  0  0  0  0  0  0  0  0
    4.4483    7.6061    3.2578 H   0  0  0  0  0  0  0  0  0  0  0  0
    2.3356    8.8367    2.7516 H   0  0  0  0  0  0  0  0  0  0  0  0
    1.4714    7.4883    3.0702 H   0  0  0  0  0  0  0  0  0  0  0  0
    2.6847    6.2796    1.2464 H   0  0  0  0  0  0  0  0  0  0  0  0
    3.5489    7.6280    0.9277 H   0  0  0  0  0  0  0  0  0  0  0  0
    2.0096    4.4760    5.4893 H   0  0  0  0  0  0  0  0  0  0  0  0
    0.5731    4.3729    4.7195 H   0  0  0  0  0  0  0  0  0  0  0  0
    1.2398    3.0395    5.3862 H   0  0  0  0  0  0  0  0  0  0  0  0
    1.4742    0.1409    0.8075 H   0  0  0  0  0  0  0  0  0  0  0  0
   -0.0862    2.2878   -0.3389 H   0  0  0  0  0  0  0  0  0  0  0  0
    0.2741    2.3821   -2.7402 H   0  0  0  0  0  0  0  0  0  0  0  0
    2.9315    3.4928   -2.5361 H   0  0  0  0  0  0  0  0  0  0  0  0
    1.5981    4.1595   -1.8694 H   0  0  0  0  0  0  0  0  0  0  0  0
    2.1006    5.2308   -3.9359 H   0  0  0  0  0  0  0  0  0  0  0  0
    1.9974    3.7943   -4.7057 H   0  0  0  0  0  0  0  0  0  0  0  0
    0.6641    4.4610   -4.0390 H   0  0  0  0  0  0  0  0  0  0  0  0
    1.5948    1.9073   -4.6638 H   0  0  0  0  0  0  0  0  0  0  0  0
    2.7747    1.3094   -3.7062 H   0  0  0  0  0  0  0  0  0  0  0  0
    1.3382    0.5396   -3.8093 H   0  0  0  0  0  0  0  0  0  0  0  0
   -0.1134    0.2333    2.5799 H   0  0  0  0  0  0  0  0  0  0  0  0
   -0.7801    1.5666    1.9133 H   0  0  0  0  0  0  0  0  0  0  0  0
   -0.4397   -1.9667    1.5862 H   0  0  0  0  0  0  0  0  0  0  0  0
   -1.8211   -3.3569    0.2061 H   0  0  0  0  0  0  0  0  0  0  0  0
   -4.2411   -2.1742   -2.2097 H   0  0  0  0  0  0  0  0  0  0  0  0
   -3.5251    0.0237   -1.4961 H   0  0  0  0  0  0  0  0  0  0  0  0
   -2.1423    1.4089   -0.1127 H   0  0  0  0  0  0  0  0  0  0  0  0
  1  2  2  0  0  0  0
  2  3  1  0  0  0  0
  3  4  1  0  0  0  0
  4  5  1  0  0  0  0
  5  6  1  0  0  0  0
  6  7  1  0  0  0  0
  7  8  1  0  0  0  0
  8  9  1  0  0  0  0
  9  7  1  0  0  0  0
  4 10  1  0  0  0  0
  2 11  1  0  0  0  0
 11 12  1  0  0  0  0
 12 13  1  0  0  0  0
 13 14  2  0  0  0  0
 13 15  1  0  0  0  0
 15 16  1  0  0  0  0
 16 17  1  0  0  0  0
 15 18  1  0  0  0  0
 11 19  1  0  0  0  0
 19 20  1  0  0  0  0
 20 21  1  0  0  0  0
 21 22  2  0  0  0  0
 22 23  1  0  0  0  0
 23 24  1  0  0  0  0
 23 25  2  0  0  0  0
 25 26  1  0  0  0  0
 26 20  2  0  0  0  0
  3 27  1  0  0  0  0
  4 28  1  0  0  0  0
  5 29  1  0  0  0  0
  5 30  1  0  0  0  0
  6 31  1  0  0  0  0
  6 32  1  0  0  0  0
  7 33  1  0  0  0  0
  8 34  1  0  0  0  0
  8 35  1  0  0  0  0
  9 36  1  0  0  0  0
  9 37  1  0  0  0  0
 10 38  1  0  0  0  0
 10 39  1  0  0  0  0
 10 40  1  0  0  0  0
 11 41  1  0  0  0  0
 12 42  1  0  0  0  0
 15 43  1  0  0  0  0
 16 44  1  0  0  0  0
 16 45  1  0  0  0  0
 17 46  1  0  0  0  0
 17 47  1  0  0  0  0
 17 48  1  0  0  0  0
 18 49  1  0  0  0  0
 18 50  1  0  0  0  0
 18 51  1  0  0  0  0
 19 52  1  0  0  0  0
 19 53  1  0  0  0  0
 21 54  1  0  0  0  0
 22 55  1  0  0  0  0
 24 56  1  0  0  0  0
 25 57  1  0  0  0  0
 26 58  1  0  0  0  0
M  END
>  <result-rank>
28

>  <similarity>
0.949

>  <query-name>
LIG_A_1101_CCCC[R*]_2

>  <query-smiles>
O=C(NCCCC)[C@@H](NC(=O)C)Cc1ccc(O)cc1

>  <source>
REALspace_2019-12

>  <similarity-descriptor>
1.000;1.000;1.000;0.998;0.998;1.000;0.949;1.000;1.000;0.890;1.000;1.000;1.000;0.176

>  <similarity-descriptor-smiles>
c1ccccc1;O=C;N;CC;CC;C;C;C;N;C(=O)C;C;C;O;C1CC1.C.C

>  <reaction-name>
s_22

>  <reagent1-name>
8902424

>  <reagent1-smiles>
[R1*]NC(CCC1CC1)C

>  <reagent2-name>
17064022

>  <reagent2-smiles>
[R1*]C(=O)C(NC(=O)C(CC)C)Cc1ccc(O)cc1

$$$$
s_2430a____12915848____4963356
          04022015093D 1   1.00000     0.00000     0
            
 43 43  0  0  0  0            999 V2000
   -1.8992    3.3270    3.4696 F   0  0  0  0  0  0  0  0  0  0  0  0
   -2.6639    2.2411    3.5400 C   0  0  0  0  0  0  0  0  0  0  0  0
   -3.5281    2.2411    2.5291 F   0  0  0  0  0  0  0  0  0  0  0  0
   -1.7900    1.0000    3.4595 C   0  0  3  0  0  0  0  0  0  0  0  0
   -1.0550    1.0000    2.1865 N   0  0  0  0  0  0  0  0  0  0  0  0
    0.3150    1.0000    2.1865 C   0  0  0  0  0  0  0  0  0  0  0  0
    0.9150    1.0000    3.2257 O   0  0  0  0  0  0  0  0  0  0  0  0
    1.0000    1.0000    1.0000 N   0  0  0  0  0  0  0  0  0  0  0  0
    2.4700    1.0000    1.0000 C   0  0  0  0  0  0  0  0  0  0  0  0
    2.9767   -0.4113    1.2488 C   0  0  3  0  0  0  0  0  0  0  0  0
    4.4967   -0.4113    1.2488 C   0  0  0  0  0  0  0  0  0  0  0  0
    5.0967   -0.7667    2.2254 O   0  0  0  0  0  0  0  0  0  0  0  0
    5.1517   -0.0233    0.1828 O   0  0  0  0  0  0  0  0  0  0  0  0
    6.5717   -0.0233    0.1828 C   0  0  0  0  0  0  0  0  0  0  0  0
    2.4700   -1.3325    0.1511 C   0  0  0  0  0  0  0  0  0  0  0  0
    2.9767   -2.7438    0.3999 C   0  0  0  0  0  0  0  0  0  0  0  0
    2.2160   -3.6184    1.1690 C   0  0  0  0  0  0  0  0  0  0  0  0
    2.6753   -4.9109    1.3987 C   0  0  0  0  0  0  0  0  0  0  0  0
    3.8912   -5.3131    0.8550 C   0  0  0  0  0  0  0  0  0  0  0  0
    4.3409   -6.5665    1.0757 O   0  0  0  0  0  0  0  0  0  0  0  0
    4.6560   -4.4423    0.0855 C   0  0  0  0  0  0  0  0  0  0  0  0
    4.1917   -3.1510   -0.1414 C   0  0  0  0  0  0  0  0  0  0  0  0
   -2.6639   -0.2411    3.5400 C   0  0  0  0  0  0  0  0  0  0  0  0
   -3.1639    2.2411    4.4061 H   0  0  0  0  0  0  0  0  0  0  0  0
   -1.1402    1.0000    4.2196 H   0  0  0  0  0  0  0  0  0  0  0  0
   -1.5550    1.0000    1.3204 H   0  0  0  0  0  0  0  0  0  0  0  0
    0.5000    1.0000    0.1340 H   0  0  0  0  0  0  0  0  0  0  0  0
    2.8033    1.6060    1.7222 H   0  0  0  0  0  0  0  0  0  0  0  0
    2.8033    1.3225    0.1140 H   0  0  0  0  0  0  0  0  0  0  0  0
    2.6433   -0.7338    2.1348 H   0  0  0  0  0  0  0  0  0  0  0  0
    6.9050    0.2992   -0.7032 H   0  0  0  0  0  0  0  0  0  0  0  0
    6.9050    0.5827    0.9050 H   0  0  0  0  0  0  0  0  0  0  0  0
    6.9050   -0.9518    0.3465 H   0  0  0  0  0  0  0  0  0  0  0  0
    1.4700   -1.3325    0.1511 H   0  0  0  0  0  0  0  0  0  0  0  0
    2.8033   -1.0100   -0.7349 H   0  0  0  0  0  0  0  0  0  0  0  0
    1.3433   -3.3192    1.5548 H   0  0  0  0  0  0  0  0  0  0  0  0
    2.1355   -5.5466    1.9506 H   0  0  0  0  0  0  0  0  0  0  0  0
    5.2142   -6.8601    0.6871 H   0  0  0  0  0  0  0  0  0  0  0  0
    5.5290   -4.7411   -0.2999 H   0  0  0  0  0  0  0  0  0  0  0  0
    4.7312   -2.5154   -0.6936 H   0  0  0  0  0  0  0  0  0  0  0  0
   -3.1639   -0.2411    4.4061 H   0  0  0  0  0  0  0  0  0  0  0  0
   -3.3137   -0.2411    2.7800 H   0  0  0  0  0  0  0  0  0  0  0  0
   -2.0890   -1.0576    3.4871 H   0  0  0  0  0  0  0  0  0  0  0  0
  1  2  1  0  0  0  0
  2  3  1  0  0  0  0
  2  4  1  0  0  0  0
  4  5  1  0  0  0  0
  5  6  1  0  0  0  0
  6  7  2  0  0  0  0
  6  8  1  0  0  0  0
  8  9  1  0  0  0  0
  9 10  1  0  0  0  0
 10 11  1  0  0  0  0
 11 12  2  0  0  0  0
 11 13  1  0  0  0  0
 13 14  1  0  0  0  0
 10 15  1  0  0  0  0
 15 16  1  0  0  0  0
 16 17  1  0  0  0  0
 17 18  2  0  0  0  0
 18 19  1  0  0  0  0
 19 20  1  0  0  0  0
 19 21  2  0  0  0  0
 21 22  1  0  0  0  0
 22 16  2  0  0  0  0
  4 23  1  0  0  0  0
  2 24  1  0  0  0  0
  4 25  1  0  0  0  0
  5 26  1  0  0  0  0
  8 27  1  0  0  0  0
  9 28  1  0  0  0  0
  9 29  1  0  0  0  0
 10 30  1  0  0  0  0
 14 31  1  0  0  0  0
 14 32  1  0  0  0  0
 14 33  1  0  0  0  0
 15 34  1  0  0  0  0
 15 35  1  0  0  0  0
 17 36  1  0  0  0  0
 18 37  1  0  0  0  0
 20 38  1  0  0  0  0
 21 39  1  0  0  0  0
 22 40  1  0  0  0  0
 23 41  1  0  0  0  0
 23 42  1  0  0  0  0
 23 43  1  0  0  0  0
M  END
>  <result-rank>
29

>  <similarity>
0.949

>  <query-name>
LIG_A_1101_CCCC[R*]_2

>  <query-smiles>
O=C(NCCCC)[C@@H](NC(=O)C)Cc1ccc(O)cc1

>  <source>
REALspace_2019-12

>  <similarity-descriptor>
1.000;0.995;1.000;0.982;0.982;0.949;0.0;0.824;0.824;0.855;0.994;1.000;1.000;0.0

>  <similarity-descriptor-smiles>
c1ccccc1;C=O;N;FC(F)C;FC(F)C;C;;NCC;NCC;C(=O)O;C;C;O;

>  <reaction-name>
s_2430a

>  <reagent1-name>
12915848

>  <reagent1-smiles>
[R1*]C(=O)NC(C(F)F)C

>  <reagent2-name>
4963356

>  <reagent2-smiles>
[R1*]NCC(C(=O)OC)Cc1ccc(O)cc1

$$$$
s_22____7689026____3192126
          04022015093D 1   1.00000     0.00000     0
            
 49 49  0  0  0  0            999 V2000
    1.6640    1.7197    5.8141 S   0  0  0  0  0  0  0  0  0  0  0  0
    2.5455    2.9163    4.7811 C   0  0  3  0  0  0  0  0  0  0  0  0
    3.4131    2.1760    3.7762 C   0  0  0  0  0  0  0  0  0  0  0  0
    2.5644    1.3273    2.9275 N   0  0  0  0  0  0  0  0  0  0  0  0
    1.8776    1.8776    1.8776 C   0  0  0  0  0  0  0  0  0  0  0  0
    1.9688    3.0524    1.6507 O   0  0  0  0  0  0  0  0  0  0  0  0
    1.0000    1.0000    1.0000 C   0  0  0  0  0  0  0  0  0  0  0  0
    0.7075    1.7208   -0.3059 C   0  0  3  0  0  0  0  0  0  0  0  0
   -0.2825    0.9552   -1.0771 N   0  0  0  0  0  0  0  0  0  0  0  0
   -1.4824    1.5266   -1.4097 C   0  0  0  0  0  0  0  0  0  0  0  0
   -1.7253    2.6520   -1.0715 O   0  0  0  0  0  0  0  0  0  0  0  0
   -2.5060    0.7349   -2.2071 C   0  0  0  0  0  0  0  0  0  0  0  0
    1.9899    1.8484   -1.1126 C   0  0  0  0  0  0  0  0  0  0  0  0
    2.3107    3.0573   -1.7222 C   0  0  0  0  0  0  0  0  0  0  0  0
    1.4943    4.1268   -1.6080 O   0  0  0  0  0  0  0  0  0  0  0  0
    1.9297    5.4031   -2.0527 C   0  0  0  0  0  0  0  0  0  0  0  0
    0.8309    6.4254   -1.8122 C   0  0  0  0  0  0  0  0  0  0  0  0
    3.4842    3.1740   -2.4607 C   0  0  0  0  0  0  0  0  0  0  0  0
    4.3369    2.0819   -2.5890 C   0  0  0  0  0  0  0  0  0  0  0  0
    4.0159    0.8734   -1.9787 C   0  0  0  0  0  0  0  0  0  0  0  0
    2.8428    0.7571   -1.2402 C   0  0  0  0  0  0  0  0  0  0  0  0
    3.4231    3.7939    5.6586 C   0  0  0  0  0  0  0  0  0  0  0  0
    3.0649    1.0806    6.7654 C   0  0  0  0  0  0  0  0  0  0  0  0
    1.8844    3.4871    4.2940 H   0  0  0  0  0  0  0  0  0  0  0  0
    3.9001    2.8371    3.2055 H   0  0  0  0  0  0  0  0  0  0  0  0
    4.0741    1.6052    4.2633 H   0  0  0  0  0  0  0  0  0  0  0  0
    2.4883    0.3483    3.1166 H   0  0  0  0  0  0  0  0  0  0  0  0
    0.1409    0.8075    1.4742 H   0  0  0  0  0  0  0  0  0  0  0  0
    1.4742    0.1409    0.8075 H   0  0  0  0  0  0  0  0  0  0  0  0
    0.3450    2.6319   -0.1097 H   0  0  0  0  0  0  0  0  0  0  0  0
   -0.0801    0.0173   -1.3589 H   0  0  0  0  0  0  0  0  0  0  0  0
   -2.1436   -0.1762   -2.4032 H   0  0  0  0  0  0  0  0  0  0  0  0
   -3.3495    0.6510   -1.6765 H   0  0  0  0  0  0  0  0  0  0  0  0
   -2.6985    1.2091   -3.0662 H   0  0  0  0  0  0  0  0  0  0  0  0
    2.1390    5.3622   -3.0297 H   0  0  0  0  0  0  0  0  0  0  0  0
    2.7500    5.6703   -1.5470 H   0  0  0  0  0  0  0  0  0  0  0  0
    1.1375    7.3243   -2.1254 H   0  0  0  0  0  0  0  0  0  0  0  0
    0.0106    6.1582   -2.3179 H   0  0  0  0  0  0  0  0  0  0  0  0
    0.6216    6.4664   -0.8352 H   0  0  0  0  0  0  0  0  0  0  0  0
    3.7147    4.0427   -2.8992 H   0  0  0  0  0  0  0  0  0  0  0  0
    5.1802    2.1656   -3.1197 H   0  0  0  0  0  0  0  0  0  0  0  0
    4.6286    0.0885   -2.0709 H   0  0  0  0  0  0  0  0  0  0  0  0
    2.6126   -0.1113   -0.8009 H   0  0  0  0  0  0  0  0  0  0  0  0
    3.9101    4.4549    5.0879 H   0  0  0  0  0  0  0  0  0  0  0  0
    2.8523    4.2809    6.3197 H   0  0  0  0  0  0  0  0  0  0  0  0
    4.0842    3.2231    6.1457 H   0  0  0  0  0  0  0  0  0  0  0  0
    2.7424    0.3846    7.4069 H   0  0  0  0  0  0  0  0  0  0  0  0
    3.7338    0.6752    6.1422 H   0  0  0  0  0  0  0  0  0  0  0  0
    3.4926    1.8288    7.2726 H   0  0  0  0  0  0  0  0  0  0  0  0
  1  2  1  0  0  0  0
  2  3  1  0  0  0  0
  3  4  1  0  0  0  0
  4  5  1  0  0  0  0
  5  6  2  0  0  0  0
  5  7  1  0  0  0  0
  7  8  1  0  0  0  0
  8  9  1  0  0  0  0
  9 10  1  0  0  0  0
 10 11  2  0  0  0  0
 10 12  1  0  0  0  0
  8 13  1  0  0  0  0
 13 14  1  0  0  0  0
 14 15  1  0  0  0  0
 15 16  1  0  0  0  0
 16 17  1  0  0  0  0
 14 18  2  0  0  0  0
 18 19  1  0  0  0  0
 19 20  2  0  0  0  0
 20 21  1  0  0  0  0
 21 13  2  0  0  0  0
  2 22  1  0  0  0  0
  1 23  1  0  0  0  0
  2 24  1  0  0  0  0
  3 25  1  0  0  0  0
  3 26  1  0  0  0  0
  4 27  1  0  0  0  0
  7 28  1  0  0  0  0
  7 29  1  0  0  0  0
  8 30  1  0  0  0  0
  9 31  1  0  0  0  0
 12 32  1  0  0  0  0
 12 33  1  0  0  0  0
 12 34  1  0  0  0  0
 16 35  1  0  0  0  0
 16 36  1  0  0  0  0
 17 37  1  0  0  0  0
 17 38  1  0  0  0  0
 17 39  1  0  0  0  0
 18 40  1  0  0  0  0
 19 41  1  0  0  0  0
 20 42  1  0  0  0  0
 21 43  1  0  0  0  0
 22 44  1  0  0  0  0
 22 45  1  0  0  0  0
 22 46  1  0  0  0  0
 23 47  1  0  0  0  0
 23 48  1  0  0  0  0
 23 49  1  0  0  0  0
M  END
>  <result-rank>
30

>  <similarity>
0.949

>  <query-name>
LIG_A_1101_CCCC[R*]_2

>  <query-smiles>
O=C(NCCCC)[C@@H](NC(=O)C)Cc1ccc(O)cc1

>  <source>
REALspace_2019-12

>  <similarity-descriptor>
1.000;1.000;1.000;1.000;0.997;0.997;0.695;1.000;1.000;1.000;1.000;1.000;0.704;0.125

>  <similarity-descriptor-smiles>
c1ccccc1;C=O;N;C;CC;CC;SC;CC;N;C=O;C;CC;O;C.C

>  <reaction-name>
s_22

>  <reagent1-name>
7689026

>  <reagent1-smiles>
[R1*]NCC(SC)C

>  <reagent2-name>
3192126

>  <reagent2-smiles>
[R1*]C(=O)CC(NC(=O)C)c1c(OCC)cccc1

$$$$
s_527a____11985138____17513452
          04022015093D 1   1.00000     0.00000     0
            
 49 50  0  0  0  0            999 V2000
    0.4000    1.0000   -0.0392 O   0  0  0  0  0  0  0  0  0  0  0  0
    1.0000    1.0000    1.0000 C   0  0  0  0  0  0  0  0  0  0  0  0
    0.3150    1.0000    2.1865 N   0  0  0  0  0  0  0  0  0  0  0  0
   -1.1550    1.0000    2.1865 C   0  0  0  0  0  0  0  0  0  0  0  0
   -1.6610   -0.4313    2.1865 C   0  0  0  0  0  0  0  0  0  0  0  0
   -1.1804   -1.1846    3.4062 C   0  0  0  0  0  0  0  0  0  0  0  0
   -2.5040   -1.8014    3.4350 N   0  3  3  0  0  0  0  0  0  0  0  0
   -3.0163   -0.5568    2.8567 C   0  0  0  0  0  0  0  0  0  0  0  0
   -2.9897   -1.9855    4.8101 C   0  0  0  0  0  0  0  0  0  0  0  0
    1.0500    1.0000    3.4595 C   0  0  0  0  0  0  0  0  0  0  0  0
    2.5200    1.0000    1.0000 C   0  0  3  0  0  0  0  0  0  0  0  0
    3.0100    1.6930   -0.2002 N   0  0  0  0  0  0  0  0  0  0  0  0
    3.2383    3.0434   -0.1663 C   0  0  0  0  0  0  0  0  0  0  0  0
    3.0383    3.6605    0.8432 O   0  0  0  0  0  0  0  0  0  0  0  0
    3.7450    3.7599   -1.4074 C   0  0  0  0  0  0  0  0  0  0  0  0
    3.0267   -0.4331    1.0000 C   0  0  0  0  0  0  0  0  0  0  0  0
    4.5467   -0.4331    1.0000 C   0  0  0  0  0  0  0  0  0  0  0  0
    5.2311   -0.4331    2.2110 C   0  0  0  0  0  0  0  0  0  0  0  0
    6.6219   -0.4338    2.2159 C   0  0  0  0  0  0  0  0  0  0  0  0
    7.3116   -0.4351    1.0075 C   0  0  0  0  0  0  0  0  0  0  0  0
    8.7316   -0.4355    1.0077 O   0  0  0  0  0  0  0  0  0  0  0  0
    6.6320   -0.4347   -0.2063 C   0  0  0  0  0  0  0  0  0  0  0  0
    5.2412   -0.4344   -0.2053 C   0  0  0  0  0  0  0  0  0  0  0  0
   -2.6019   -2.6048    2.8476 H   0  0  0  0  0  0  0  0  0  0  0  0
   -1.4883    1.4714    1.3700 H   0  0  0  0  0  0  0  0  0  0  0  0
   -1.4883    1.4714    3.0030 H   0  0  0  0  0  0  0  0  0  0  0  0
   -1.5665   -0.9184    1.3182 H   0  0  0  0  0  0  0  0  0  0  0  0
   -0.4248   -1.8178    3.2389 H   0  0  0  0  0  0  0  0  0  0  0  0
   -0.9661   -0.6115    4.1972 H   0  0  0  0  0  0  0  0  0  0  0  0
   -3.2269    0.1612    3.5201 H   0  0  0  0  0  0  0  0  0  0  0  0
   -3.7879   -0.6689    2.2305 H   0  0  0  0  0  0  0  0  0  0  0  0
   -3.8955   -2.4088    4.7898 H   0  0  0  0  0  0  0  0  0  0  0  0
   -2.3569   -2.5760    5.3110 H   0  0  0  0  0  0  0  0  0  0  0  0
   -3.0473   -1.0968    5.2651 H   0  0  0  0  0  0  0  0  0  0  0  0
    0.4002    1.0000    4.2196 H   0  0  0  0  0  0  0  0  0  0  0  0
    1.6249    0.1835    3.5125 H   0  0  0  0  0  0  0  0  0  0  0  0
    1.6249    1.8165    3.5125 H   0  0  0  0  0  0  0  0  0  0  0  0
    2.8533    1.4714    1.8165 H   0  0  0  0  0  0  0  0  0  0  0  0
    3.1767    1.1787   -1.0415 H   0  0  0  0  0  0  0  0  0  0  0  0
    3.8561    3.1005   -2.1510 H   0  0  0  0  0  0  0  0  0  0  0  0
    3.0863    4.4614   -1.6796 H   0  0  0  0  0  0  0  0  0  0  0  0
    4.6259    4.1892   -1.2082 H   0  0  0  0  0  0  0  0  0  0  0  0
    2.6933   -0.9045    1.8165 H   0  0  0  0  0  0  0  0  0  0  0  0
    2.6933   -0.9045    0.1835 H   0  0  0  0  0  0  0  0  0  0  0  0
    4.7256   -0.4325    3.0738 H   0  0  0  0  0  0  0  0  0  0  0  0
    7.1226   -0.4335    3.0815 H   0  0  0  0  0  0  0  0  0  0  0  0
    9.2317   -0.4364    0.1417 H   0  0  0  0  0  0  0  0  0  0  0  0
    7.1374   -0.4347   -1.0692 H   0  0  0  0  0  0  0  0  0  0  0  0
    4.7405   -0.4351   -1.0710 H   0  0  0  0  0  0  0  0  0  0  0  0
  1  2  2  0  0  0  0
  2  3  1  0  0  0  0
  3  4  1  0  0  0  0
  4  5  1  0  0  0  0
  5  6  1  0  0  0  0
  6  7  1  0  0  0  0
  7  8  1  0  0  0  0
  8  5  1  0  0  0  0
  7  9  1  0  0  0  0
  3 10  1  0  0  0  0
  2 11  1  0  0  0  0
 11 12  1  0  0  0  0
 12 13  1  0  0  0  0
 13 14  2  0  0  0  0
 13 15  1  0  0  0  0
 11 16  1  0  0  0  0
 16 17  1  0  0  0  0
 17 18  1  0  0  0  0
 18 19  2  0  0  0  0
 19 20  1  0  0  0  0
 20 21  1  0  0  0  0
 20 22  2  0  0  0  0
 22 23  1  0  0  0  0
 23 17  2  0  0  0  0
  7 24  1  0  0  0  0
  4 25  1  0  0  0  0
  4 26  1  0  0  0  0
  5 27  1  0  0  0  0
  6 28  1  0  0  0  0
  6 29  1  0  0  0  0
  8 30  1  0  0  0  0
  8 31  1  0  0  0  0
  9 32  1  0  0  0  0
  9 33  1  0  0  0  0
  9 34  1  0  0  0  0
 10 35  1  0  0  0  0
 10 36  1  0  0  0  0
 10 37  1  0  0  0  0
 11 38  1  0  0  0  0
 12 39  1  0  0  0  0
 15 40  1  0  0  0  0
 15 41  1  0  0  0  0
 15 42  1  0  0  0  0
 16 43  1  0  0  0  0
 16 44  1  0  0  0  0
 18 45  1  0  0  0  0
 19 46  1  0  0  0  0
 21 47  1  0  0  0  0
 22 48  1  0  0  0  0
 23 49  1  0  0  0  0
M  CHG  1   7   1
M  END
>  <result-rank>
31

>  <similarity>
0.949

>  <query-name>
LIG_A_1101_CCCC[R*]_2

>  <query-smiles>
O=C(NCCCC)[C@@H](NC(=O)C)Cc1ccc(O)cc1

>  <source>
REALspace_2019-12

>  <similarity-descriptor>
1.000;0.845;0.884;0.884;0.884;0.884;0.995;1.000;1.000;1.000;1.000;1.000;1.000;0.077

>  <similarity-descriptor-smiles>
c1ccccc1;O=CNC;C1C[NH+]C1;C1C[NH+]C1;C1C[NH+]C1;C1C[NH+]C1;C;C;N;C=O;C;C;O;C

>  <reaction-name>
s_527a

>  <reagent1-name>
11985138

>  <reagent1-smiles>
[R1*]N(CC1CN(C1)C)C

>  <reagent2-name>
17513452

>  <reagent2-smiles>
[R1*]C(=O)C(NC(=O)C)Cc1ccc(O)cc1

$$$$
s_2708____10269490____2679674
          04022015093D 1   1.00000     0.00000     0
            
 43 43  0  0  0  0            999 V2000
    3.5136    0.1696    6.2192 Cl  0  0  0  0  0  0  0  0  0  0  0  0
    4.2177   -0.1642    4.6189 C   0  0  0  0  0  0  0  0  0  0  0  0
    3.4153   -0.0898    3.4854 C   0  0  0  0  0  0  0  0  0  0  0  0
    3.9789   -0.3536    2.2412 C   0  0  0  0  0  0  0  0  0  0  0  0
    5.3239   -0.6883    2.1228 C   0  0  0  0  0  0  0  0  0  0  0  0
    6.1093   -0.7570    3.2689 C   0  0  0  0  0  0  0  0  0  0  0  0
    5.5653   -0.4965    4.5224 C   0  0  0  0  0  0  0  0  0  0  0  0
    3.1050   -0.2731    1.0000 C   0  0  3  0  0  0  0  0  0  0  0  0
    2.3700    1.0000    1.0000 N   0  0  0  0  0  0  0  0  0  0  0  0
    1.0000    1.0000    1.0000 C   0  0  0  0  0  0  0  0  0  0  0  0
    0.4000   -0.0392    1.0000 O   0  0  0  0  0  0  0  0  0  0  0  0
    0.3150    2.1865    1.0000 N   0  0  0  0  0  0  0  0  0  0  0  0
   -1.1550    2.1865    1.0000 C   0  0  0  0  0  0  0  0  0  0  0  0
   -1.6617    3.6195    1.0000 C   0  0  0  0  0  0  0  0  0  0  0  0
   -3.1817    3.6195    1.0000 C   0  0  0  0  0  0  0  0  0  0  0  0
   -1.1550    4.3361    2.2411 C   0  0  0  0  0  0  0  0  0  0  0  0
   -1.1550    4.3361   -0.2411 C   0  0  0  0  0  0  0  0  0  0  0  0
    3.9789   -0.3536   -0.2411 C   0  0  0  0  0  0  0  0  0  0  0  0
    3.1625   -0.2784   -1.4005 O   0  0  0  0  0  0  0  0  0  0  0  0
    2.7675   -1.5864   -1.7870 C   0  0  0  0  0  0  0  0  0  0  0  0
    2.4475    0.1497    3.5636 H   0  0  0  0  0  0  0  0  0  0  0  0
    5.7214   -0.8772    1.2249 H   0  0  0  0  0  0  0  0  0  0  0  0
    7.0770   -0.9966    3.1907 H   0  0  0  0  0  0  0  0  0  0  0  0
    6.1349   -0.5473    5.3427 H   0  0  0  0  0  0  0  0  0  0  0  0
    2.4552   -1.0331    1.0000 H   0  0  0  0  0  0  0  0  0  0  0  0
    2.8700    1.8660    1.0000 H   0  0  0  0  0  0  0  0  0  0  0  0
    0.8150    3.0525    1.0000 H   0  0  0  0  0  0  0  0  0  0  0  0
   -1.4883    1.7151    1.8165 H   0  0  0  0  0  0  0  0  0  0  0  0
   -1.4883    1.7151    0.1835 H   0  0  0  0  0  0  0  0  0  0  0  0
   -3.5150    4.5623    1.0000 H   0  0  0  0  0  0  0  0  0  0  0  0
   -3.5150    3.1481    0.1835 H   0  0  0  0  0  0  0  0  0  0  0  0
   -3.5150    3.1481    1.8165 H   0  0  0  0  0  0  0  0  0  0  0  0
   -1.4883    5.2789    2.2411 H   0  0  0  0  0  0  0  0  0  0  0  0
   -1.4883    3.8647    3.0576 H   0  0  0  0  0  0  0  0  0  0  0  0
   -0.1550    4.3361    2.2411 H   0  0  0  0  0  0  0  0  0  0  0  0
   -1.4883    5.2789   -0.2411 H   0  0  0  0  0  0  0  0  0  0  0  0
   -0.1550    4.3361   -0.2411 H   0  0  0  0  0  0  0  0  0  0  0  0
   -1.4883    3.8647   -1.0576 H   0  0  0  0  0  0  0  0  0  0  0  0
    4.6287    0.4065   -0.2411 H   0  0  0  0  0  0  0  0  0  0  0  0
    4.4789   -1.2196   -0.2411 H   0  0  0  0  0  0  0  0  0  0  0  0
    2.1926   -1.5334   -2.6035 H   0  0  0  0  0  0  0  0  0  0  0  0
    3.5798   -2.1347   -1.9862 H   0  0  0  0  0  0  0  0  0  0  0  0
    2.2521   -2.0123   -1.0434 H   0  0  0  0  0  0  0  0  0  0  0  0
  1  2  1  0  0  0  0
  2  3  1  0  0  0  0
  3  4  2  0  0  0  0
  4  5  1  0  0  0  0
  5  6  2  0  0  0  0
  6  7  1  0  0  0  0
  7  2  2  0  0  0  0
  4  8  1  0  0  0  0
  8  9  1  0  0  0  0
  9 10  1  0  0  0  0
 10 11  2  0  0  0  0
 10 12  1  0  0  0  0
 12 13  1  0  0  0  0
 13 14  1  0  0  0  0
 14 15  1  0  0  0  0
 14 16  1  0  0  0  0
 14 17  1  0  0  0  0
  8 18  1  0  0  0  0
 18 19  1  0  0  0  0
 19 20  1  0  0  0  0
  3 21  1  0  0  0  0
  5 22  1  0  0  0  0
  6 23  1  0  0  0  0
  7 24  1  0  0  0  0
  8 25  1  0  0  0  0
  9 26  1  0  0  0  0
 12 27  1  0  0  0  0
 13 28  1  0  0  0  0
 13 29  1  0  0  0  0
 15 30  1  0  0  0  0
 15 31  1  0  0  0  0
 15 32  1  0  0  0  0
 16 33  1  0  0  0  0
 16 34  1  0  0  0  0
 16 35  1  0  0  0  0
 17 36  1  0  0  0  0
 17 37  1  0  0  0  0
 17 38  1  0  0  0  0
 18 39  1  0  0  0  0
 18 40  1  0  0  0  0
 20 41  1  0  0  0  0
 20 42  1  0  0  0  0
 20 43  1  0  0  0  0
M  END
>  <result-rank>
32

>  <similarity>
0.949

>  <query-name>
LIG_A_1101_CCCC[R*]_2

>  <query-smiles>
O=C(NCCCC)[C@@H](NC(=O)C)Cc1ccc(O)cc1

>  <source>
REALspace_2019-12

>  <similarity-descriptor>
0.969;0.995;1.000;1.000;0.937;0.937;1.000;1.000;1.000;0.770;0.994;0.969;0.0;0.0

>  <similarity-descriptor-smiles>
Clc1ccccc1;C=O;N;C;C(C)C;C(C)C;C;CN;CN;CO;C;Clc1ccccc1;;

>  <reaction-name>
s_2708

>  <reagent1-name>
10269490

>  <reagent1-smiles>
[R1*]C(=O)NC(c1cc(Cl)ccc1)COC

>  <reagent2-name>
2679674

>  <reagent2-smiles>
[R1*]NCC(C)(C)C

$$$$
s_2430a____12875778____8696690
          04022015093D 1   1.00000     0.00000     0
            
 41 42  0  0  0  0            999 V2000
    6.0813    1.5792    2.2187 Cl  0  0  0  0  0  0  0  0  0  0  0  0
    5.6882    1.9584    0.5244 C   0  0  0  0  0  0  0  0  0  0  0  0
    4.9532    1.0652   -0.2480 C   0  0  0  0  0  0  0  0  0  0  0  0
    4.6527    1.3740   -1.5704 C   0  0  0  0  0  0  0  0  0  0  0  0
    5.0891    2.5766   -2.1161 C   0  0  0  0  0  0  0  0  0  0  0  0
    5.8241    3.4656   -1.3394 C   0  0  0  0  0  0  0  0  0  0  0  0
    6.1279    3.1623   -0.0162 C   0  0  0  0  0  0  0  0  0  0  0  0
    4.4778   -0.2478    0.3532 C   0  0  3  0  0  0  0  0  0  0  0  0
    3.0721   -0.1976    0.7888 N   0  0  0  0  0  0  0  0  0  0  0  0
    2.3700    1.0000    1.0000 C   0  0  0  0  0  0  0  0  0  0  0  0
    2.9700    2.0234    1.1805 O   0  0  0  0  0  0  0  0  0  0  0  0
    1.0000    1.0000    1.0000 N   0  0  0  0  0  0  0  0  0  0  0  0
    0.2650    2.2731    1.0000 C   0  0  3  0  0  0  0  0  0  0  0  0
   -0.6089    2.3536   -0.2411 C   0  0  0  0  0  0  0  0  0  0  0  0
    0.1558    2.2831   -1.3270 F   0  0  0  0  0  0  0  0  0  0  0  0
   -1.4731    1.3427   -0.2411 F   0  0  0  0  0  0  0  0  0  0  0  0
   -0.6089    2.3536    2.2411 C   0  0  0  0  0  0  0  0  0  0  0  0
   -1.3689    3.6699    2.2411 C   0  0  0  0  0  0  0  0  0  0  0  0
    2.4785   -1.5236    1.0130 C   0  0  0  0  0  0  0  0  0  0  0  0
    2.4190   -2.2980   -0.2940 C   0  0  0  0  0  0  0  0  0  0  0  0
    3.7270   -2.2886   -0.9672 N   0  0  0  0  0  0  0  0  0  0  0  0
    4.7115   -1.3293   -0.6976 C   0  0  0  0  0  0  0  0  0  0  0  0
    5.7482   -1.3622   -1.3422 O   0  0  0  0  0  0  0  0  0  0  0  0
    4.1242    0.7332   -2.1273 H   0  0  0  0  0  0  0  0  0  0  0  0
    4.8746    2.8018   -3.0665 H   0  0  0  0  0  0  0  0  0  0  0  0
    6.1365    4.3293   -1.7350 H   0  0  0  0  0  0  0  0  0  0  0  0
    6.6568    3.8030    0.5404 H   0  0  0  0  0  0  0  0  0  0  0  0
    5.0469   -0.4540    1.1492 H   0  0  0  0  0  0  0  0  0  0  0  0
    0.5000    0.1340    1.0000 H   0  0  0  0  0  0  0  0  0  0  0  0
    0.9148    3.0331    1.0000 H   0  0  0  0  0  0  0  0  0  0  0  0
   -1.1089    3.2196   -0.2411 H   0  0  0  0  0  0  0  0  0  0  0  0
   -0.0340    2.3006    3.0576 H   0  0  0  0  0  0  0  0  0  0  0  0
   -1.2587    1.5935    2.2411 H   0  0  0  0  0  0  0  0  0  0  0  0
   -1.9438    3.7229    3.0576 H   0  0  0  0  0  0  0  0  0  0  0  0
   -0.7190    4.4300    2.2411 H   0  0  0  0  0  0  0  0  0  0  0  0
   -1.9438    3.7229    1.4246 H   0  0  0  0  0  0  0  0  0  0  0  0
    1.5527   -1.4145    1.3751 H   0  0  0  0  0  0  0  0  0  0  0  0
    3.0365   -2.0286    1.6714 H   0  0  0  0  0  0  0  0  0  0  0  0
    2.1555   -3.2436   -0.1031 H   0  0  0  0  0  0  0  0  0  0  0  0
    1.7386   -1.8770   -0.8938 H   0  0  0  0  0  0  0  0  0  0  0  0
    3.9216   -2.9968   -1.6459 H   0  0  0  0  0  0  0  0  0  0  0  0
  1  2  1  0  0  0  0
  2  3  1  0  0  0  0
  3  4  2  0  0  0  0
  4  5  1  0  0  0  0
  5  6  2  0  0  0  0
  6  7  1  0  0  0  0
  7  2  2  0  0  0  0
  3  8  1  0  0  0  0
  8  9  1  0  0  0  0
  9 10  1  0  0  0  0
 10 11  2  0  0  0  0
 10 12  1  0  0  0  0
 12 13  1  0  0  0  0
 13 14  1  0  0  0  0
 14 15  1  0  0  0  0
 14 16  1  0  0  0  0
 13 17  1  0  0  0  0
 17 18  1  0  0  0  0
  9 19  1  0  0  0  0
 19 20  1  0  0  0  0
 20 21  1  0  0  0  0
 21 22  1  0  0  0  0
 22  8  1  0  0  0  0
 22 23  2  0  0  0  0
  4 24  1  0  0  0  0
  5 25  1  0  0  0  0
  6 26  1  0  0  0  0
  7 27  1  0  0  0  0
  8 28  1  0  0  0  0
 12 29  1  0  0  0  0
 13 30  1  0  0  0  0
 14 31  1  0  0  0  0
 17 32  1  0  0  0  0
 17 33  1  0  0  0  0
 18 34  1  0  0  0  0
 18 35  1  0  0  0  0
 18 36  1  0  0  0  0
 19 37  1  0  0  0  0
 19 38  1  0  0  0  0
 20 39  1  0  0  0  0
 20 40  1  0  0  0  0
 21 41  1  0  0  0  0
M  END
>  <result-rank>
33

>  <similarity>
0.949

>  <query-name>
LIG_A_1101_CCCC[R*]_2

>  <query-smiles>
O=C(NCCCC)[C@@H](NC(=O)C)Cc1ccc(O)cc1

>  <source>
REALspace_2019-12

>  <similarity-descriptor>
0.968;0.995;1.000;0.982;0.982;1.000;1.000;0.897;0.897;0.897;0.897;0.897;0.0;0.0

>  <similarity-descriptor-smiles>
Clc1ccccc1;C=O;N;CC(F)F;CC(F)F;C;C;C1C(NCCN1)=O;C1C(NCCN1)=O;C1C(NCCN1)=O;C1C(NCCN1)=O;C1C(NCCN1)=O;;

>  <reaction-name>
s_2430a

>  <reagent1-name>
12875778

>  <reagent1-smiles>
[R1*]C(=O)NC(C(F)F)CC

>  <reagent2-name>
8696690

>  <reagent2-smiles>
[R1*]N1C(c2c(Cl)cccc2)C(=O)NCC1

$$$$
s_22____15107540____17513450
          04022015093D 1   1.00000     0.00000     0
            
 44 44  0  0  0  0            999 V2000
    4.9883    3.1737   -1.8237 O   0  0  0  0  0  0  0  0  0  0  0  0
    5.1883    2.1345   -2.3894 C   0  0  0  0  0  0  0  0  0  0  0  0
    4.9700    1.0000   -1.7719 O   0  0  0  0  0  0  0  0  0  0  0  0
    4.4967    1.0000   -0.4331 C   0  0  0  0  0  0  0  0  0  0  0  0
    2.9767    1.0000   -0.4331 C   0  0  0  0  0  0  0  0  0  0  0  0
    2.4700    1.0000    1.0000 C   0  0  0  0  0  0  0  0  0  0  0  0
    1.0000    1.0000    1.0000 N   0  0  0  0  0  0  0  0  0  0  0  0
    0.3150    1.0000    2.1865 C   0  0  0  0  0  0  0  0  0  0  0  0
    0.9150    1.0000    3.2257 O   0  0  0  0  0  0  0  0  0  0  0  0
   -1.2050    1.0000    2.1865 C   0  0  3  0  0  0  0  0  0  0  0  0
   -1.6950    1.0000    3.5724 N   0  0  0  0  0  0  0  0  0  0  0  0
   -2.4826    2.0275    4.0205 C   0  0  0  0  0  0  0  0  0  0  0  0
   -2.7725    2.9275    3.2816 O   0  0  0  0  0  0  0  0  0  0  0  0
   -2.9893    2.0275    5.4535 C   0  0  0  0  0  0  0  0  0  0  0  0
   -1.7117   -0.2411    1.4699 C   0  0  0  0  0  0  0  0  0  0  0  0
   -3.2317   -0.2411    1.4699 C   0  0  0  0  0  0  0  0  0  0  0  0
   -3.9161    0.3644    0.4212 C   0  0  0  0  0  0  0  0  0  0  0  0
   -5.3069    0.3662    0.4166 C   0  0  0  0  0  0  0  0  0  0  0  0
   -5.9966   -0.2391    1.4624 C   0  0  0  0  0  0  0  0  0  0  0  0
   -7.3464   -0.2393    1.4621 O   0  0  0  0  0  0  0  0  0  0  0  0
   -5.3170   -0.8457    2.5138 C   0  0  0  0  0  0  0  0  0  0  0  0
   -3.9262   -0.8449    2.5131 C   0  0  0  0  0  0  0  0  0  0  0  0
    5.6450    2.1345   -3.6810 N   0  0  0  0  0  0  0  0  0  0  0  0
    4.8300    1.8165    0.0383 H   0  0  0  0  0  0  0  0  0  0  0  0
    4.8300    0.1835    0.0383 H   0  0  0  0  0  0  0  0  0  0  0  0
    2.6433    0.1835   -0.9045 H   0  0  0  0  0  0  0  0  0  0  0  0
    2.6433    1.8165   -0.9045 H   0  0  0  0  0  0  0  0  0  0  0  0
    2.8033    0.1835    1.4714 H   0  0  0  0  0  0  0  0  0  0  0  0
    2.8033    1.8165    1.4714 H   0  0  0  0  0  0  0  0  0  0  0  0
    0.5000    1.0000    0.1340 H   0  0  0  0  0  0  0  0  0  0  0  0
   -1.5383    1.8165    1.7151 H   0  0  0  0  0  0  0  0  0  0  0  0
   -1.4534    0.2500    4.1881 H   0  0  0  0  0  0  0  0  0  0  0  0
   -2.6560    1.2110    5.9249 H   0  0  0  0  0  0  0  0  0  0  0  0
   -2.6560    2.8440    5.9249 H   0  0  0  0  0  0  0  0  0  0  0  0
   -3.9893    2.0275    5.4535 H   0  0  0  0  0  0  0  0  0  0  0  0
   -1.3783   -0.2411    0.5271 H   0  0  0  0  0  0  0  0  0  0  0  0
   -1.3783   -1.0576    1.9413 H   0  0  0  0  0  0  0  0  0  0  0  0
   -3.4106    0.7963   -0.3258 H   0  0  0  0  0  0  0  0  0  0  0  0
   -5.8076    0.7993   -0.3330 H   0  0  0  0  0  0  0  0  0  0  0  0
   -7.8465   -0.6731    2.2116 H   0  0  0  0  0  0  0  0  0  0  0  0
   -5.8224   -1.2771    3.2611 H   0  0  0  0  0  0  0  0  0  0  0  0
   -3.4255   -1.2783    3.2624 H   0  0  0  0  0  0  0  0  0  0  0  0
    5.8117    1.2685   -4.1525 H   0  0  0  0  0  0  0  0  0  0  0  0
    5.8117    3.0005   -4.1525 H   0  0  0  0  0  0  0  0  0  0  0  0
  1  2  2  0  0  0  0
  2  3  1  0  0  0  0
  3  4  1  0  0  0  0
  4  5  1  0  0  0  0
  5  6  1  0  0  0  0
  6  7  1  0  0  0  0
  7  8  1  0  0  0  0
  8  9  2  0  0  0  0
  8 10  1  0  0  0  0
 10 11  1  0  0  0  0
 11 12  1  0  0  0  0
 12 13  2  0  0  0  0
 12 14  1  0  0  0  0
 10 15  1  0  0  0  0
 15 16  1  0  0  0  0
 16 17  1  0  0  0  0
 17 18  2  0  0  0  0
 18 19  1  0  0  0  0
 19 20  1  0  0  0  0
 19 21  2  0  0  0  0
 21 22  1  0  0  0  0
 22 16  2  0  0  0  0
  2 23  1  0  0  0  0
  4 24  1  0  0  0  0
  4 25  1  0  0  0  0
  5 26  1  0  0  0  0
  5 27  1  0  0  0  0
  6 28  1  0  0  0  0
  6 29  1  0  0  0  0
  7 30  1  0  0  0  0
 10 31  1  0  0  0  0
 11 32  1  0  0  0  0
 14 33  1  0  0  0  0
 14 34  1  0  0  0  0
 14 35  1  0  0  0  0
 15 36  1  0  0  0  0
 15 37  1  0  0  0  0
 17 38  1  0  0  0  0
 18 39  1  0  0  0  0
 20 40  1  0  0  0  0
 21 41  1  0  0  0  0
 22 42  1  0  0  0  0
 23 43  1  0  0  0  0
 23 44  1  0  0  0  0
M  END
>  <result-rank>
34

>  <similarity>
0.949

>  <query-name>
LIG_A_1101_CCCC[R*]_2

>  <query-smiles>
O=C(NCCCC)[C@@H](NC(=O)C)Cc1ccc(O)cc1

>  <source>
REALspace_2019-12

>  <similarity-descriptor>
1.000;1.000;0.844;0.844;0.844;1.000;0.956;1.000;1.000;1.000;1.000;1.000;1.000;0.200

>  <similarity-descriptor-smiles>
c1ccccc1;C=O;CN;CN;CN;C;C;C;N;C=O;C;C;O;O=C.O.N

>  <reaction-name>
s_22

>  <reagent1-name>
15107540

>  <reagent1-smiles>
[R1*]NCCCOC(=O)N

>  <reagent2-name>
17513450

>  <reagent2-smiles>
[R1*]C(=O)C(NC(=O)C)Cc1ccc(O)cc1

$$$$
s_11a____10903210____217443
          04022015093D 1   1.00000     0.00000     0
            
 43 43  0  0  0  0            999 V2000
    0.4000    1.0000   -0.0392 O   0  0  0  0  0  0  0  0  0  0  0  0
    1.0000    1.0000    1.0000 C   0  0  0  0  0  0  0  0  0  0  0  0
    0.3150    1.0000    2.1865 N   0  0  0  0  0  0  0  0  0  0  0  0
   -1.1550    1.0000    2.1865 C   0  0  3  0  0  0  0  0  0  0  0  0
   -1.6617    2.2411    2.9030 C   0  0  0  0  0  0  0  0  0  0  0  0
   -2.0583    3.2127    3.4640 C   0  0  0  0  0  0  0  0  0  0  0  0
   -1.6617   -0.2411    2.9030 C   0  0  0  0  0  0  0  0  0  0  0  0
   -3.1817   -0.2411    2.9030 C   0  0  0  0  0  0  0  0  0  0  0  0
    2.5200    1.0000    1.0000 C   0  0  0  0  0  0  0  0  0  0  0  0
    3.0267    1.4309   -0.3667 C   0  0  3  0  0  0  0  0  0  0  0  0
    4.4521    1.7778   -0.2739 N   0  0  0  0  0  0  0  0  0  0  0  0
    4.8720    3.0415   -0.5957 C   0  0  0  0  0  0  0  0  0  0  0  0
    4.0761    3.8653   -0.9534 O   0  0  0  0  0  0  0  0  0  0  0  0
    6.3460    3.4001   -0.4997 C   0  0  0  0  0  0  0  0  0  0  0  0
    2.8459    0.2915   -1.3566 C   0  0  0  0  0  0  0  0  0  0  0  0
    3.4350   -0.9427   -1.1022 C   0  0  0  0  0  0  0  0  0  0  0  0
    3.2672   -1.9815   -2.0115 C   0  0  0  0  0  0  0  0  0  0  0  0
    2.5127   -1.7750   -3.1622 C   0  0  0  0  0  0  0  0  0  0  0  0
    1.9217   -0.5408   -3.4146 C   0  0  0  0  0  0  0  0  0  0  0  0
    2.0907    0.4987   -2.5058 C   0  0  0  0  0  0  0  0  0  0  0  0
    2.3341   -2.9141   -4.1531 C   0  0  0  0  0  0  0  0  0  0  0  0
    0.8150    1.0000    3.0525 H   0  0  0  0  0  0  0  0  0  0  0  0
   -1.4883    1.0000    1.2436 H   0  0  0  0  0  0  0  0  0  0  0  0
   -2.3917    4.0292    3.9354 H   0  0  0  0  0  0  0  0  0  0  0  0
   -1.3283   -0.2411    3.8458 H   0  0  0  0  0  0  0  0  0  0  0  0
   -1.3283   -1.0576    2.4316 H   0  0  0  0  0  0  0  0  0  0  0  0
   -3.5150   -1.0576    3.3744 H   0  0  0  0  0  0  0  0  0  0  0  0
   -3.5150    0.5754    3.3744 H   0  0  0  0  0  0  0  0  0  0  0  0
   -3.5150   -0.2411    1.9602 H   0  0  0  0  0  0  0  0  0  0  0  0
    2.8533    0.0795    1.2041 H   0  0  0  0  0  0  0  0  0  0  0  0
    2.8533    1.6370    1.6951 H   0  0  0  0  0  0  0  0  0  0  0  0
    2.5092    2.2281   -0.6779 H   0  0  0  0  0  0  0  0  0  0  0  0
    5.1154    1.0913    0.0242 H   0  0  0  0  0  0  0  0  0  0  0  0
    6.8634    2.6030   -0.1885 H   0  0  0  0  0  0  0  0  0  0  0  0
    6.6793    3.6836   -1.3989 H   0  0  0  0  0  0  0  0  0  0  0  0
    6.4649    4.1497    0.1514 H   0  0  0  0  0  0  0  0  0  0  0  0
    3.9750   -1.0820   -0.2721 H   0  0  0  0  0  0  0  0  0  0  0  0
    3.6868   -2.8727   -1.8392 H   0  0  0  0  0  0  0  0  0  0  0  0
    1.3794   -0.4021   -4.2432 H   0  0  0  0  0  0  0  0  0  0  0  0
    1.6715    1.3901   -2.6780 H   0  0  0  0  0  0  0  0  0  0  0  0
    1.7704   -2.6044   -4.9188 H   0  0  0  0  0  0  0  0  0  0  0  0
    3.2288   -3.2032   -4.4934 H   0  0  0  0  0  0  0  0  0  0  0  0
    1.8856   -3.6838   -3.6989 H   0  0  0  0  0  0  0  0  0  0  0  0
  1  2  2  0  0  0  0
  2  3  1  0  0  0  0
  3  4  1  0  0  0  0
  4  5  1  0  0  0  0
  5  6  3  0  0  0  0
  4  7  1  0  0  0  0
  7  8  1  0  0  0  0
  2  9  1  0  0  0  0
  9 10  1  0  0  0  0
 10 11  1  0  0  0  0
 11 12  1  0  0  0  0
 12 13  2  0  0  0  0
 12 14  1  0  0  0  0
 10 15  1  0  0  0  0
 15 16  1  0  0  0  0
 16 17  2  0  0  0  0
 17 18  1  0  0  0  0
 18 19  2  0  0  0  0
 19 20  1  0  0  0  0
 20 15  2  0  0  0  0
 18 21  1  0  0  0  0
  3 22  1  0  0  0  0
  4 23  1  0  0  0  0
  6 24  1  0  0  0  0
  7 25  1  0  0  0  0
  7 26  1  0  0  0  0
  8 27  1  0  0  0  0
  8 28  1  0  0  0  0
  8 29  1  0  0  0  0
  9 30  1  0  0  0  0
  9 31  1  0  0  0  0
 10 32  1  0  0  0  0
 11 33  1  0  0  0  0
 14 34  1  0  0  0  0
 14 35  1  0  0  0  0
 14 36  1  0  0  0  0
 16 37  1  0  0  0  0
 17 38  1  0  0  0  0
 19 39  1  0  0  0  0
 20 40  1  0  0  0  0
 21 41  1  0  0  0  0
 21 42  1  0  0  0  0
 21 43  1  0  0  0  0
M  END
>  <result-rank>
35

>  <similarity>
0.948

>  <query-name>
LIG_A_1101_CCCC[R*]_2

>  <query-smiles>
O=C(NCCCC)[C@@H](NC(=O)C)Cc1ccc(O)cc1

>  <source>
REALspace_2019-12

>  <similarity-descriptor>
0.927;1.000;1.000;0.990;0.990;0.949;0.0;1.000;1.000;1.000;1.000;1.000;0.0;0.071

>  <similarity-descriptor-smiles>
c1ccc(cc1)C;O=C;N;C(C)C;C(C)C;C;;CC;N;C=O;C;CC;;C

>  <reaction-name>
s_11a

>  <reagent1-name>
10903210

>  <reagent1-smiles>
[R1*]NC(C#C)CC

>  <reagent2-name>
217443

>  <reagent2-smiles>
[R1*]C(=O)CC(NC(=O)C)c1ccc(cc1)C

$$$$
s_240690a____11965284____7408864
          04022015093D 1   1.00000     0.00000     0
            
 44 44  0  0  0  0            999 V2000
    2.2958   -3.7685   -3.7389 Cl  0  0  0  0  0  0  0  0  0  0  0  0
    2.5117   -2.2967   -2.7617 C   0  0  0  0  0  0  0  0  0  0  0  0
    3.2657   -2.3459   -1.5945 C   0  0  0  0  0  0  0  0  0  0  0  0
    3.4364   -1.1979   -0.8273 C   0  0  0  0  0  0  0  0  0  0  0  0
    2.8459   -0.0094   -1.2435 C   0  0  0  0  0  0  0  0  0  0  0  0
    2.0917    0.0402   -2.4105 C   0  0  0  0  0  0  0  0  0  0  0  0
    1.9209   -1.1080   -3.1778 C   0  0  0  0  0  0  0  0  0  0  0  0
    3.0267    1.2488   -0.4113 C   0  0  3  0  0  0  0  0  0  0  0  0
    4.4521    1.6048   -0.3645 N   0  0  0  0  0  0  0  0  0  0  0  0
    4.8720    2.8157   -0.8486 C   0  0  0  0  0  0  0  0  0  0  0  0
    4.0761    3.5858   -1.3107 O   0  0  0  0  0  0  0  0  0  0  0  0
    6.3460    3.1838   -0.8002 C   0  0  0  0  0  0  0  0  0  0  0  0
    2.5200    1.0000    1.0000 C   0  0  0  0  0  0  0  0  0  0  0  0
    1.0000    1.0000    1.0000 C   0  0  0  0  0  0  0  0  0  0  0  0
    0.4000    1.0000   -0.0392 O   0  0  0  0  0  0  0  0  0  0  0  0
    0.3150    1.0000    2.1865 N   0  0  0  0  0  0  0  0  0  0  0  0
   -1.1550    1.0000    2.1865 C   0  0  0  0  0  0  0  0  0  0  0  0
   -1.6617   -0.4331    2.1865 C   0  0  0  0  0  0  0  0  0  0  0  0
   -3.1817   -0.4331    2.1865 C   0  0  0  0  0  0  0  0  0  0  0  0
   -3.6717   -1.8190    2.1865 N   0  3  0  0  0  0  0  0  0  0  0  0
    1.0500    1.0000    3.4595 C   0  0  0  0  0  0  0  0  0  0  0  0
   -4.6717   -1.8190    2.1865 H   0  0  0  0  0  0  0  0  0  0  0  0
   -3.3383   -2.2904    1.3700 H   0  0  0  0  0  0  0  0  0  0  0  0
   -3.3383   -2.2904    3.0030 H   0  0  0  0  0  0  0  0  0  0  0  0
    3.6854   -3.2066   -1.3064 H   0  0  0  0  0  0  0  0  0  0  0  0
    3.9772   -1.2270    0.0133 H   0  0  0  0  0  0  0  0  0  0  0  0
    1.6719    0.9009   -2.6984 H   0  0  0  0  0  0  0  0  0  0  0  0
    1.3799   -1.0790   -4.0184 H   0  0  0  0  0  0  0  0  0  0  0  0
    2.5092    1.9985   -0.8239 H   0  0  0  0  0  0  0  0  0  0  0  0
    5.1154    0.9631    0.0206 H   0  0  0  0  0  0  0  0  0  0  0  0
    6.8634    2.4341   -0.3876 H   0  0  0  0  0  0  0  0  0  0  0  0
    6.6793    3.3476   -1.7287 H   0  0  0  0  0  0  0  0  0  0  0  0
    6.4649    4.0120   -0.2524 H   0  0  0  0  0  0  0  0  0  0  0  0
    2.8533    0.1140    1.3225 H   0  0  0  0  0  0  0  0  0  0  0  0
    2.8533    1.7222    1.6060 H   0  0  0  0  0  0  0  0  0  0  0  0
   -1.4883    1.4714    1.3700 H   0  0  0  0  0  0  0  0  0  0  0  0
   -1.4883    1.4714    3.0030 H   0  0  0  0  0  0  0  0  0  0  0  0
   -1.3283   -0.9045    1.3700 H   0  0  0  0  0  0  0  0  0  0  0  0
   -1.3283   -0.9045    3.0030 H   0  0  0  0  0  0  0  0  0  0  0  0
   -3.5150    0.0383    3.0030 H   0  0  0  0  0  0  0  0  0  0  0  0
   -3.5150    0.0383    1.3700 H   0  0  0  0  0  0  0  0  0  0  0  0
    0.4002    1.0000    4.2196 H   0  0  0  0  0  0  0  0  0  0  0  0
    1.6249    0.1835    3.5125 H   0  0  0  0  0  0  0  0  0  0  0  0
    1.6249    1.8165    3.5125 H   0  0  0  0  0  0  0  0  0  0  0  0
  1  2  1  0  0  0  0
  2  3  1  0  0  0  0
  3  4  2  0  0  0  0
  4  5  1  0  0  0  0
  5  6  2  0  0  0  0
  6  7  1  0  0  0  0
  7  2  2  0  0  0  0
  5  8  1  0  0  0  0
  8  9  1  0  0  0  0
  9 10  1  0  0  0  0
 10 11  2  0  0  0  0
 10 12  1  0  0  0  0
  8 13  1  0  0  0  0
 13 14  1  0  0  0  0
 14 15  2  0  0  0  0
 14 16  1  0  0  0  0
 16 17  1  0  0  0  0
 17 18  1  0  0  0  0
 18 19  1  0  0  0  0
 19 20  1  0  0  0  0
 16 21  1  0  0  0  0
 20 22  1  0  0  0  0
 20 23  1  0  0  0  0
 20 24  1  0  0  0  0
  3 25  1  0  0  0  0
  4 26  1  0  0  0  0
  6 27  1  0  0  0  0
  7 28  1  0  0  0  0
  8 29  1  0  0  0  0
  9 30  1  0  0  0  0
 12 31  1  0  0  0  0
 12 32  1  0  0  0  0
 12 33  1  0  0  0  0
 13 34  1  0  0  0  0
 13 35  1  0  0  0  0
 17 36  1  0  0  0  0
 17 37  1  0  0  0  0
 18 38  1  0  0  0  0
 18 39  1  0  0  0  0
 19 40  1  0  0  0  0
 19 41  1  0  0  0  0
 21 42  1  0  0  0  0
 21 43  1  0  0  0  0
 21 44  1  0  0  0  0
M  CHG  1  20   1
M  END
>  <result-rank>
36

>  <similarity>
0.948

>  <query-name>
LIG_A_1101_CCCC[R*]_2

>  <query-smiles>
O=C(NCCCC)[C@@H](NC(=O)C)Cc1ccc(O)cc1

>  <source>
REALspace_2019-12

>  <similarity-descriptor>
0.968;0.852;0.852;0.959;0.959;1.000;0.956;1.000;1.000;1.000;1.000;1.000;0.0;0.077

>  <similarity-descriptor-smiles>
Clc1ccccc1;C=O;C=O;N(C)C;N(C)C;C;C;CC;N;C=O;C;CC;;[NH3+]

>  <reaction-name>
s_240690a

>  <reagent1-name>
11965284

>  <reagent1-smiles>
[R1*]N(CCCN)C

>  <reagent2-name>
7408864

>  <reagent2-smiles>
[R1*]C(=O)CC(NC(=O)C)c1ccc(Cl)cc1

$$$$
s_8____14594092____11685364
          04022015093D 1   1.00000     0.00000     0
            
 49 49  0  0  0  0            999 V2000
    0.1750   -0.4289    1.0000 S   0  0  0  0  0  0  0  0  0  0  0  0
    1.0000    1.0000    1.0000 C   0  0  0  0  0  0  0  0  0  0  0  0
    2.3700    1.0000    1.0000 N   0  0  0  0  0  0  0  0  0  0  0  0
    3.1050    2.2731    1.0000 C   0  0  3  0  0  0  0  0  0  0  0  0
    3.0371    2.8973    2.3842 C   0  0  0  0  0  0  0  0  0  0  0  0
    2.8634    2.2032    3.3476 O   0  0  0  0  0  0  0  0  0  0  0  0
    3.1743    4.2524    2.5321 N   0  0  0  0  0  0  0  0  0  0  0  0
    3.0566    5.1350    1.3624 C   0  0  0  0  0  0  0  0  0  0  0  0
    3.4393    4.8237    3.8603 C   0  0  0  0  0  0  0  0  0  0  0  0
    4.5571    2.0197    0.6291 C   0  0  0  0  0  0  0  0  0  0  0  0
    4.6867    1.9363   -0.8834 C   0  0  0  0  0  0  0  0  0  0  0  0
    4.5501    0.7070   -1.5199 C   0  0  0  0  0  0  0  0  0  0  0  0
    4.6702    0.6350   -2.9039 C   0  0  0  0  0  0  0  0  0  0  0  0
    4.9238    1.7870   -3.6409 C   0  0  0  0  0  0  0  0  0  0  0  0
    5.0578    3.0096   -2.9945 C   0  0  0  0  0  0  0  0  0  0  0  0
    4.9405    3.0947   -1.6110 C   0  0  0  0  0  0  0  0  0  0  0  0
    0.3150    2.1865    1.0000 N   0  0  0  0  0  0  0  0  0  0  0  0
   -1.1550    2.1865    1.0000 C   0  0  0  0  0  0  0  0  0  0  0  0
   -1.6617    3.6195    1.0000 C   0  0  0  0  0  0  0  0  0  0  0  0
   -3.1817    3.6195    1.0000 C   0  0  0  0  0  0  0  0  0  0  0  0
   -1.1550    4.3361    2.2411 C   0  0  0  0  0  0  0  0  0  0  0  0
   -1.1550    4.3361   -0.2411 C   0  0  0  0  0  0  0  0  0  0  0  0
    2.8700    0.1340    1.0000 H   0  0  0  0  0  0  0  0  0  0  0  0
    2.6943    2.8951    0.3333 H   0  0  0  0  0  0  0  0  0  0  0  0
    3.1825    6.0851    1.6478 H   0  0  0  0  0  0  0  0  0  0  0  0
    3.7567    4.8932    0.6905 H   0  0  0  0  0  0  0  0  0  0  0  0
    2.1505    5.0271    0.9533 H   0  0  0  0  0  0  0  0  0  0  0  0
    3.5103    5.8185    3.7871 H   0  0  0  0  0  0  0  0  0  0  0  0
    2.6908    4.5877    4.4801 H   0  0  0  0  0  0  0  0  0  0  0  0
    4.2970    4.4537    4.2173 H   0  0  0  0  0  0  0  0  0  0  0  0
    5.1242    2.7689    0.9714 H   0  0  0  0  0  0  0  0  0  0  0  0
    4.8602    1.1588    1.0376 H   0  0  0  0  0  0  0  0  0  0  0  0
    4.3669   -0.1188   -0.9865 H   0  0  0  0  0  0  0  0  0  0  0  0
    4.5743   -0.2451   -3.3690 H   0  0  0  0  0  0  0  0  0  0  0  0
    5.0095    1.7354   -4.6359 H   0  0  0  0  0  0  0  0  0  0  0  0
    5.2402    3.8353   -3.5283 H   0  0  0  0  0  0  0  0  0  0  0  0
    5.0371    3.9750   -1.1465 H   0  0  0  0  0  0  0  0  0  0  0  0
    0.8150    3.0525    1.0000 H   0  0  0  0  0  0  0  0  0  0  0  0
   -1.4883    1.7151    1.8165 H   0  0  0  0  0  0  0  0  0  0  0  0
   -1.4883    1.7151    0.1835 H   0  0  0  0  0  0  0  0  0  0  0  0
   -3.5150    4.5623    1.0000 H   0  0  0  0  0  0  0  0  0  0  0  0
   -3.5150    3.1481    0.1835 H   0  0  0  0  0  0  0  0  0  0  0  0
   -3.5150    3.1481    1.8165 H   0  0  0  0  0  0  0  0  0  0  0  0
   -1.4883    5.2789    2.2411 H   0  0  0  0  0  0  0  0  0  0  0  0
   -1.4883    3.8647    3.0576 H   0  0  0  0  0  0  0  0  0  0  0  0
   -0.1550    4.3361    2.2411 H   0  0  0  0  0  0  0  0  0  0  0  0
   -1.4883    5.2789   -0.2411 H   0  0  0  0  0  0  0  0  0  0  0  0
   -0.1550    4.3361   -0.2411 H   0  0  0  0  0  0  0  0  0  0  0  0
   -1.4883    3.8647   -1.0576 H   0  0  0  0  0  0  0  0  0  0  0  0
  1  2  2  0  0  0  0
  2  3  1  0  0  0  0
  3  4  1  0  0  0  0
  4  5  1  0  0  0  0
  5  6  2  0  0  0  0
  5  7  1  0  0  0  0
  7  8  1  0  0  0  0
  7  9  1  0  0  0  0
  4 10  1  0  0  0  0
 10 11  1  0  0  0  0
 11 12  1  0  0  0  0
 12 13  2  0  0  0  0
 13 14  1  0  0  0  0
 14 15  2  0  0  0  0
 15 16  1  0  0  0  0
 16 11  2  0  0  0  0
  2 17  1  0  0  0  0
 17 18  1  0  0  0  0
 18 19  1  0  0  0  0
 19 20  1  0  0  0  0
 19 21  1  0  0  0  0
 19 22  1  0  0  0  0
  3 23  1  0  0  0  0
  4 24  1  0  0  0  0
  8 25  1  0  0  0  0
  8 26  1  0  0  0  0
  8 27  1  0  0  0  0
  9 28  1  0  0  0  0
  9 29  1  0  0  0  0
  9 30  1  0  0  0  0
 10 31  1  0  0  0  0
 10 32  1  0  0  0  0
 12 33  1  0  0  0  0
 13 34  1  0  0  0  0
 14 35  1  0  0  0  0
 15 36  1  0  0  0  0
 16 37  1  0  0  0  0
 17 38  1  0  0  0  0
 18 39  1  0  0  0  0
 18 40  1  0  0  0  0
 20 41  1  0  0  0  0
 20 42  1  0  0  0  0
 20 43  1  0  0  0  0
 21 44  1  0  0  0  0
 21 45  1  0  0  0  0
 21 46  1  0  0  0  0
 22 47  1  0  0  0  0
 22 48  1  0  0  0  0
 22 49  1  0  0  0  0
M  END
>  <result-rank>
37

>  <similarity>
0.948

>  <query-name>
LIG_A_1101_CCCC[R*]_2

>  <query-smiles>
O=C(NCCCC)[C@@H](NC(=O)C)Cc1ccc(O)cc1

>  <source>
REALspace_2019-12

>  <similarity-descriptor>
0.960;0.848;0.997;0.997;0.937;0.937;1.000;0.996;0.996;1.000;0.977;1.000;0.0;0.067

>  <similarity-descriptor-smiles>
c1ccccc1;S=C;NC;NC;C(C)C;C(C)C;C;NC;NC;C=O;NC;C;;C

>  <reaction-name>
s_8

>  <reagent1-name>
14594092

>  <reagent1-smiles>
[R1*]NC(C(=O)N(C)C)Cc1ccccc1

>  <reagent2-name>
11685364

>  <reagent2-smiles>
[R1*]C(=S)NCC(C)(C)C

$$$$
s_240690a____16942188____17513472
          04022015093D 1   1.00000     0.00000     0
            
 47 49  0  0  0  0            999 V2000
   -1.0213    2.0766    0.4260 O   0  0  0  0  0  0  0  0  0  0  0  0
    0.1224    1.8776    0.1224 C   0  0  0  0  0  0  0  0  0  0  0  0
    0.6373    2.4413   -1.0152 N   0  0  0  0  0  0  0  0  0  0  0  0
   -0.2087    3.2873   -1.8611 C   0  0  3  0  0  0  0  0  0  0  0  0
   -0.3797    2.7894   -3.2892 C   0  0  0  0  0  0  0  0  0  0  0  0
   -1.5132    1.8764   -3.7105 C   0  0  0  0  0  0  0  0  0  0  0  0
   -0.6079    1.3989   -4.7605 N   0  3  0  0  0  0  0  0  0  0  0  0
    0.5076    1.7051   -3.8724 C   0  0  0  0  0  0  0  0  0  0  0  0
   -0.2762    4.2393   -3.6969 C   0  0  0  0  0  0  0  0  0  0  0  0
    0.5754    4.4415   -2.4692 C   0  0  0  0  0  0  0  0  0  0  0  0
    1.0000    1.0000    1.0000 C   0  0  3  0  0  0  0  0  0  0  0  0
    1.8487    0.1513    0.1513 N   0  0  0  0  0  0  0  0  0  0  0  0
    1.7598   -1.2129    0.2402 C   0  0  0  0  0  0  0  0  0  0  0  0
    0.9891   -1.7150    1.0109 O   0  0  0  0  0  0  0  0  0  0  0  0
    2.6374   -2.0905   -0.6374 C   0  0  0  0  0  0  0  0  0  0  0  0
    1.8776    1.8776    1.8776 C   0  0  0  0  0  0  0  0  0  0  0  0
    1.0000    2.7552    2.7552 C   0  0  0  0  0  0  0  0  0  0  0  0
    0.6049    2.2940    4.0066 C   0  0  0  0  0  0  0  0  0  0  0  0
   -0.1975    3.0939    4.8134 C   0  0  0  0  0  0  0  0  0  0  0  0
   -0.5947    4.3470    4.3576 C   0  0  0  0  0  0  0  0  0  0  0  0
   -1.3737    5.1264    5.1372 O   0  0  0  0  0  0  0  0  0  0  0  0
   -0.2026    4.8128    3.1068 C   0  0  0  0  0  0  0  0  0  0  0  0
    0.6001    4.0090    2.3044 C   0  0  0  0  0  0  0  0  0  0  0  0
   -0.6279    1.9384   -5.6023 H   0  0  0  0  0  0  0  0  0  0  0  0
   -0.7063    0.4291   -4.9837 H   0  0  0  0  0  0  0  0  0  0  0  0
    1.5904    2.2754   -1.2682 H   0  0  0  0  0  0  0  0  0  0  0  0
   -1.0647    3.5659   -1.4256 H   0  0  0  0  0  0  0  0  0  0  0  0
   -1.7740    1.1881   -3.0336 H   0  0  0  0  0  0  0  0  0  0  0  0
   -2.3320    2.3458   -4.0411 H   0  0  0  0  0  0  0  0  0  0  0  0
    1.3319    2.0371   -4.3310 H   0  0  0  0  0  0  0  0  0  0  0  0
    0.7520    0.9735   -3.2360 H   0  0  0  0  0  0  0  0  0  0  0  0
   -1.1427    4.7385   -3.6924 H   0  0  0  0  0  0  0  0  0  0  0  0
    0.1953    4.3978   -4.5644 H   0  0  0  0  0  0  0  0  0  0  0  0
    1.5513    4.2662   -2.5993 H   0  0  0  0  0  0  0  0  0  0  0  0
    0.4530    5.3221   -2.0113 H   0  0  0  0  0  0  0  0  0  0  0  0
    0.4226    0.4226    1.5774 H   0  0  0  0  0  0  0  0  0  0  0  0
    2.4909    0.5697   -0.4909 H   0  0  0  0  0  0  0  0  0  0  0  0
    3.2147   -1.5131   -1.2147 H   0  0  0  0  0  0  0  0  0  0  0  0
    3.2147   -2.6678   -0.0600 H   0  0  0  0  0  0  0  0  0  0  0  0
    2.0600   -2.6678   -1.2147 H   0  0  0  0  0  0  0  0  0  0  0  0
    2.4549    1.3002    2.4549 H   0  0  0  0  0  0  0  0  0  0  0  0
    2.4549    2.4549    1.3002 H   0  0  0  0  0  0  0  0  0  0  0  0
    0.8963    1.3918    4.3246 H   0  0  0  0  0  0  0  0  0  0  0  0
   -0.4868    2.7706    5.7144 H   0  0  0  0  0  0  0  0  0  0  0  0
   -1.6617    6.0278    4.8140 H   0  0  0  0  0  0  0  0  0  0  0  0
   -0.4944    5.7147    2.7884 H   0  0  0  0  0  0  0  0  0  0  0  0
    0.8898    4.3323    1.4035 H   0  0  0  0  0  0  0  0  0  0  0  0
  1  2  2  0  0  0  0
  2  3  1  0  0  0  0
  3  4  1  0  0  0  0
  4  5  1  0  0  0  0
  5  6  1  0  0  0  0
  6  7  1  0  0  0  0
  7  8  1  0  0  0  0
  8  5  1  0  0  0  0
  5  9  1  0  0  0  0
  9 10  1  0  0  0  0
 10  4  1  0  0  0  0
  2 11  1  0  0  0  0
 11 12  1  0  0  0  0
 12 13  1  0  0  0  0
 13 14  2  0  0  0  0
 13 15  1  0  0  0  0
 11 16  1  0  0  0  0
 16 17  1  0  0  0  0
 17 18  1  0  0  0  0
 18 19  2  0  0  0  0
 19 20  1  0  0  0  0
 20 21  1  0  0  0  0
 20 22  2  0  0  0  0
 22 23  1  0  0  0  0
 23 17  2  0  0  0  0
  7 24  1  0  0  0  0
  7 25  1  0  0  0  0
  3 26  1  0  0  0  0
  4 27  1  0  0  0  0
  6 28  1  0  0  0  0
  6 29  1  0  0  0  0
  8 30  1  0  0  0  0
  8 31  1  0  0  0  0
  9 32  1  0  0  0  0
  9 33  1  0  0  0  0
 10 34  1  0  0  0  0
 10 35  1  0  0  0  0
 11 36  1  0  0  0  0
 12 37  1  0  0  0  0
 15 38  1  0  0  0  0
 15 39  1  0  0  0  0
 15 40  1  0  0  0  0
 16 41  1  0  0  0  0
 16 42  1  0  0  0  0
 18 43  1  0  0  0  0
 19 44  1  0  0  0  0
 21 45  1  0  0  0  0
 22 46  1  0  0  0  0
 23 47  1  0  0  0  0
M  CHG  1   7   1
M  END
>  <result-rank>
38

>  <similarity>
0.948

>  <query-name>
LIG_A_1101_CCCC[R*]_2

>  <query-smiles>
O=C(NCCCC)[C@@H](NC(=O)C)Cc1ccc(O)cc1

>  <source>
REALspace_2019-12

>  <similarity-descriptor>
1.000;1.000;1.000;0.891;0.891;0.891;0.0;1.000;1.000;1.000;1.000;1.000;1.000;0.091

>  <similarity-descriptor-smiles>
c1ccccc1;O=C;N;C1CCC1;C1CCC1;C1CCC1;;C;N;C=O;C;C;O;C1C[NH2+]C1

>  <reaction-name>
s_240690a

>  <reagent1-name>
16942188

>  <reagent1-smiles>
[R1*]NC1C2(CNC2)CC1

>  <reagent2-name>
17513472

>  <reagent2-smiles>
[R1*]C(=O)C(NC(=O)C)Cc1ccc(O)cc1

$$$$
s_2554____4509336____788516
          04022015093D 1   1.00000     0.00000     0
            
 40 40  0  0  0  0            999 V2000
    2.9700    2.0392    1.0000 O   0  0  0  0  0  0  0  0  0  0  0  0
    2.3700    1.0000    1.0000 C   0  0  0  0  0  0  0  0  0  0  0  0
    3.0550   -0.1865    1.0000 N   0  0  0  0  0  0  0  0  0  0  0  0
    4.5250   -0.1865    1.0000 C   0  0  3  0  0  0  0  0  0  0  0  0
    5.0315   -0.1865    2.4325 C   0  0  0  0  0  0  0  0  0  0  0  0
    5.2564   -1.4029    3.0686 C   0  0  0  0  0  0  0  0  0  0  0  0
    5.7207   -1.4008    4.3793 C   0  0  0  0  0  0  0  0  0  0  0  0
    5.9561   -2.6307    5.0488 O   0  0  0  0  0  0  0  0  0  0  0  0
    5.9560   -0.2015    5.0439 C   0  0  0  0  0  0  0  0  0  0  0  0
    5.7261    1.0090    4.3973 C   0  0  0  0  0  0  0  0  0  0  0  0
    5.2627    1.0200    3.0858 C   0  0  0  0  0  0  0  0  0  0  0  0
    5.0317   -1.4275    0.2835 C   0  0  0  0  0  0  0  0  0  0  0  0
    2.3200   -1.4595    1.0000 C   0  0  0  0  0  0  0  0  0  0  0  0
    1.0000    1.0000    1.0000 N   0  0  0  0  0  0  0  0  0  0  0  0
    0.2650    2.2731    1.0000 C   0  0  0  0  0  0  0  0  0  0  0  0
    0.0117    2.7118   -0.4331 C   0  0  0  0  0  0  0  0  0  0  0  0
   -0.7483    4.0282   -0.4331 C   0  0  0  0  0  0  0  0  0  0  0  0
   -1.0017    4.4670   -1.8661 C   0  0  0  0  0  0  0  0  0  0  0  0
    4.8583    0.6300    0.5286 H   0  0  0  0  0  0  0  0  0  0  0  0
    5.0869   -2.2650    2.5910 H   0  0  0  0  0  0  0  0  0  0  0  0
    6.2901   -2.6310    5.9914 H   0  0  0  0  0  0  0  0  0  0  0  0
    6.2903   -0.2094    5.9863 H   0  0  0  0  0  0  0  0  0  0  0  0
    5.8941    1.8710    4.8755 H   0  0  0  0  0  0  0  0  0  0  0  0
    5.0971    1.8874    2.6166 H   0  0  0  0  0  0  0  0  0  0  0  0
    6.0317   -1.4275    0.2835 H   0  0  0  0  0  0  0  0  0  0  0  0
    4.6983   -2.2440    0.7549 H   0  0  0  0  0  0  0  0  0  0  0  0
    4.6983   -1.4275   -0.6593 H   0  0  0  0  0  0  0  0  0  0  0  0
    2.9698   -2.2196    1.0000 H   0  0  0  0  0  0  0  0  0  0  0  0
    1.7451   -1.5125    1.8165 H   0  0  0  0  0  0  0  0  0  0  0  0
    1.7451   -1.5125    0.1835 H   0  0  0  0  0  0  0  0  0  0  0  0
    0.5000    0.1340    1.0000 H   0  0  0  0  0  0  0  0  0  0  0  0
    0.8054    2.9700    1.4714 H   0  0  0  0  0  0  0  0  0  0  0  0
   -0.6088    2.1535    1.4714 H   0  0  0  0  0  0  0  0  0  0  0  0
   -0.5288    2.0149   -0.9045 H   0  0  0  0  0  0  0  0  0  0  0  0
    0.8854    2.8314   -0.9045 H   0  0  0  0  0  0  0  0  0  0  0  0
   -0.2079    4.7251    0.0383 H   0  0  0  0  0  0  0  0  0  0  0  0
   -1.6221    3.9086    0.0383 H   0  0  0  0  0  0  0  0  0  0  0  0
   -1.5017    5.3330   -1.8661 H   0  0  0  0  0  0  0  0  0  0  0  0
   -0.1279    4.5866   -2.3375 H   0  0  0  0  0  0  0  0  0  0  0  0
   -1.5421    3.7701   -2.3375 H   0  0  0  0  0  0  0  0  0  0  0  0
  1  2  2  0  0  0  0
  2  3  1  0  0  0  0
  3  4  1  0  0  0  0
  4  5  1  0  0  0  0
  5  6  1  0  0  0  0
  6  7  2  0  0  0  0
  7  8  1  0  0  0  0
  7  9  1  0  0  0  0
  9 10  2  0  0  0  0
 10 11  1  0  0  0  0
 11  5  2  0  0  0  0
  4 12  1  0  0  0  0
  3 13  1  0  0  0  0
  2 14  1  0  0  0  0
 14 15  1  0  0  0  0
 15 16  1  0  0  0  0
 16 17  1  0  0  0  0
 17 18  1  0  0  0  0
  4 19  1  0  0  0  0
  6 20  1  0  0  0  0
  8 21  1  0  0  0  0
  9 22  1  0  0  0  0
 10 23  1  0  0  0  0
 11 24  1  0  0  0  0
 12 25  1  0  0  0  0
 12 26  1  0  0  0  0
 12 27  1  0  0  0  0
 13 28  1  0  0  0  0
 13 29  1  0  0  0  0
 13 30  1  0  0  0  0
 14 31  1  0  0  0  0
 15 32  1  0  0  0  0
 15 33  1  0  0  0  0
 16 34  1  0  0  0  0
 16 35  1  0  0  0  0
 17 36  1  0  0  0  0
 17 37  1  0  0  0  0
 18 38  1  0  0  0  0
 18 39  1  0  0  0  0
 18 40  1  0  0  0  0
M  END
>  <result-rank>
39

>  <similarity>
0.948

>  <query-name>
LIG_A_1101_CCCC[R*]_2

>  <query-smiles>
O=C(NCCCC)[C@@H](NC(=O)C)Cc1ccc(O)cc1

>  <source>
REALspace_2019-12

>  <similarity-descriptor>
1.000;0.969;1.000;1.000;1.000;1.000;1.000;0.967;0.0;0.0;0.0;0.967;1.000;0.083

>  <similarity-descriptor-smiles>
c1ccccc1;O=CN;N;C;C;C;C;CC;;;;CC;O;C

>  <reaction-name>
s_2554

>  <reagent1-name>
4509336

>  <reagent1-smiles>
[R1*]N(C(c1cc(O)ccc1)C)C

>  <reagent2-name>
788516

>  <reagent2-smiles>
[R1*]C(=O)NCCCC

$$$$
s_2708____10546048____16639436
          04022015093D 1   1.00000     0.00000     0
            
 40 40  0  0  0  0            999 V2000
    6.5500   -0.1748    6.7169 Cl  0  0  0  0  0  0  0  0  0  0  0  0
    5.9550   -0.1798    5.0392 C   0  0  0  0  0  0  0  0  0  0  0  0
    5.7245   -1.3879    4.3907 C   0  0  0  0  0  0  0  0  0  0  0  0
    5.2602   -1.3963    3.0793 C   0  0  0  0  0  0  0  0  0  0  0  0
    5.0315   -0.1865    2.4325 C   0  0  0  0  0  0  0  0  0  0  0  0
    5.2621    1.0219    3.0805 C   0  0  0  0  0  0  0  0  0  0  0  0
    5.7266    1.0303    4.3922 C   0  0  0  0  0  0  0  0  0  0  0  0
    4.5250   -0.1865    1.0000 C   0  0  0  0  0  0  0  0  0  0  0  0
    3.0550   -0.1865    1.0000 N   0  0  0  0  0  0  0  0  0  0  0  0
    2.3700    1.0000    1.0000 C   0  0  0  0  0  0  0  0  0  0  0  0
    2.9700    2.0392    1.0000 O   0  0  0  0  0  0  0  0  0  0  0  0
    1.0000    1.0000    1.0000 N   0  0  0  0  0  0  0  0  0  0  0  0
    0.2650    2.2731    1.0000 C   0  0  0  0  0  0  0  0  0  0  0  0
    0.0117    2.7118   -0.4331 C   0  0  0  0  0  0  0  0  0  0  0  0
   -0.7483    4.0282   -0.4331 C   0  0  3  0  0  0  0  0  0  0  0  0
   -1.9105    3.8692    0.1939 F   0  0  0  0  0  0  0  0  0  0  0  0
   -1.0017    4.4670   -1.8661 C   0  0  0  0  0  0  0  0  0  0  0  0
    2.3200   -1.4595    1.0000 C   0  0  0  0  0  0  0  0  0  0  0  0
    2.0667   -1.8983   -0.4331 C   0  0  0  0  0  0  0  0  0  0  0  0
    1.3567   -3.1281   -0.4331 O   0  0  0  0  0  0  0  0  0  0  0  0
    5.8924   -2.2510    4.8671 H   0  0  0  0  0  0  0  0  0  0  0  0
    5.0928   -2.2619    2.6074 H   0  0  0  0  0  0  0  0  0  0  0  0
    5.0943    1.8849    2.6040 H   0  0  0  0  0  0  0  0  0  0  0  0
    5.8942    1.8959    4.8640 H   0  0  0  0  0  0  0  0  0  0  0  0
    4.8583    0.6300    0.5286 H   0  0  0  0  0  0  0  0  0  0  0  0
    4.8583   -1.0030    0.5286 H   0  0  0  0  0  0  0  0  0  0  0  0
    0.5000    0.1340    1.0000 H   0  0  0  0  0  0  0  0  0  0  0  0
    0.8054    2.9700    1.4714 H   0  0  0  0  0  0  0  0  0  0  0  0
   -0.6088    2.1535    1.4714 H   0  0  0  0  0  0  0  0  0  0  0  0
    0.8854    2.8314   -0.9045 H   0  0  0  0  0  0  0  0  0  0  0  0
   -0.5288    2.0149   -0.9045 H   0  0  0  0  0  0  0  0  0  0  0  0
   -0.2079    4.7251    0.0383 H   0  0  0  0  0  0  0  0  0  0  0  0
   -0.1279    4.5866   -2.3375 H   0  0  0  0  0  0  0  0  0  0  0  0
   -1.5421    3.7701   -2.3375 H   0  0  0  0  0  0  0  0  0  0  0  0
   -1.5017    5.3330   -1.8661 H   0  0  0  0  0  0  0  0  0  0  0  0
    1.4462   -1.3399    1.4714 H   0  0  0  0  0  0  0  0  0  0  0  0
    2.8604   -2.1564    1.4714 H   0  0  0  0  0  0  0  0  0  0  0  0
    1.5262   -1.2014   -0.9045 H   0  0  0  0  0  0  0  0  0  0  0  0
    2.9404   -2.0179   -0.9045 H   0  0  0  0  0  0  0  0  0  0  0  0
    1.1900   -3.4167   -1.3759 H   0  0  0  0  0  0  0  0  0  0  0  0
  1  2  1  0  0  0  0
  2  3  1  0  0  0  0
  3  4  2  0  0  0  0
  4  5  1  0  0  0  0
  5  6  2  0  0  0  0
  6  7  1  0  0  0  0
  7  2  2  0  0  0  0
  5  8  1  0  0  0  0
  8  9  1  0  0  0  0
  9 10  1  0  0  0  0
 10 11  2  0  0  0  0
 10 12  1  0  0  0  0
 12 13  1  0  0  0  0
 13 14  1  0  0  0  0
 14 15  1  0  0  0  0
 15 16  1  0  0  0  0
 15 17  1  0  0  0  0
  9 18  1  0  0  0  0
 18 19  1  0  0  0  0
 19 20  1  0  0  0  0
  3 21  1  0  0  0  0
  4 22  1  0  0  0  0
  6 23  1  0  0  0  0
  7 24  1  0  0  0  0
  8 25  1  0  0  0  0
  8 26  1  0  0  0  0
 12 27  1  0  0  0  0
 13 28  1  0  0  0  0
 13 29  1  0  0  0  0
 14 30  1  0  0  0  0
 14 31  1  0  0  0  0
 15 32  1  0  0  0  0
 17 33  1  0  0  0  0
 17 34  1  0  0  0  0
 17 35  1  0  0  0  0
 18 36  1  0  0  0  0
 18 37  1  0  0  0  0
 19 38  1  0  0  0  0
 19 39  1  0  0  0  0
 20 40  1  0  0  0  0
M  END
>  <result-rank>
40

>  <similarity>
0.948

>  <query-name>
LIG_A_1101_CCCC[R*]_2

>  <query-smiles>
O=C(NCCCC)[C@@H](NC(=O)C)Cc1ccc(O)cc1

>  <source>
REALspace_2019-12

>  <similarity-descriptor>
0.968;0.995;1.000;1.000;1.000;0.992;0.992;0.953;0.828;0.828;0.828;0.953;0.0;0.0

>  <similarity-descriptor-smiles>
Clc1ccccc1;C=O;N;C;C;C(F)C;C(F)C;CNC;CO;CO;CO;CNC;;

>  <reaction-name>
s_2708

>  <reagent1-name>
10546048

>  <reagent1-smiles>
[R1*]C(=O)NCCC(F)C

>  <reagent2-name>
16639436

>  <reagent2-smiles>
[R1*]N(Cc1ccc(Cl)cc1)CCO

$$$$
s_22____16487112____12624298
          04022015093D 1   1.00000     0.00000     0
            
 43 44  0  0  0  0            999 V2000
   -4.9718    1.6148    2.2810 Br  0  0  0  0  0  0  0  0  0  0  0  0
   -3.5064    1.7632    0.9881 C   0  0  0  0  0  0  0  0  0  0  0  0
   -2.2091    1.9780    1.4403 C   0  0  0  0  0  0  0  0  0  0  0  0
   -1.1798    2.0818    0.5098 C   0  0  0  0  0  0  0  0  0  0  0  0
   -1.4333    1.9740   -0.8534 C   0  0  0  0  0  0  0  0  0  0  0  0
   -2.7384    1.7598   -1.2841 C   0  0  0  0  0  0  0  0  0  0  0  0
   -3.7819    1.6529   -0.3707 C   0  0  0  0  0  0  0  0  0  0  0  0
    0.2400    2.3164    1.0000 C   0  0  3  0  0  0  0  0  0  0  0  0
    0.9144    3.2716    0.1091 N   0  0  0  0  0  0  0  0  0  0  0  0
    1.3899    4.4555    0.6082 C   0  0  0  0  0  0  0  0  0  0  0  0
    1.2557    4.7128    1.7726 O   0  0  0  0  0  0  0  0  0  0  0  0
    2.0873    5.4432   -0.3129 C   0  0  0  0  0  0  0  0  0  0  0  0
    1.0000    1.0000    1.0000 C   0  0  0  0  0  0  0  0  0  0  0  0
    0.4000   -0.0392    1.0000 O   0  0  0  0  0  0  0  0  0  0  0  0
    2.3700    1.0000    1.0000 N   0  0  0  0  0  0  0  0  0  0  0  0
    3.1050   -0.2731    1.0000 C   0  0  0  0  0  0  0  0  0  0  0  0
    4.5987    0.0046    1.0000 C   0  0  0  0  0  0  0  0  0  0  0  0
    5.0039    0.8020   -0.2297 C   0  0  0  0  0  0  0  0  0  0  0  0
    6.1932    0.6584   -0.7346 C   0  0  0  0  0  0  0  0  0  0  0  0
    5.1798    0.5418    2.2960 C   0  0  0  0  0  0  0  0  0  0  0  0
    5.3692   -0.8919    2.7268 C   0  0  0  0  0  0  0  0  0  0  0  0
    5.4843   -1.1923    1.2498 C   0  0  0  0  0  0  0  0  0  0  0  0
   -2.0189    2.0566    2.4189 H   0  0  0  0  0  0  0  0  0  0  0  0
   -0.6872    2.0495   -1.5151 H   0  0  0  0  0  0  0  0  0  0  0  0
   -2.9289    1.6816   -2.2627 H   0  0  0  0  0  0  0  0  0  0  0  0
   -4.7180    1.4988   -0.6868 H   0  0  0  0  0  0  0  0  0  0  0  0
    0.2151    2.6869    1.9285 H   0  0  0  0  0  0  0  0  0  0  0  0
    1.0262    3.0571   -0.8612 H   0  0  0  0  0  0  0  0  0  0  0  0
    2.1121    5.0727   -1.2414 H   0  0  0  0  0  0  0  0  0  0  0  0
    1.5873    6.3092   -0.3129 H   0  0  0  0  0  0  0  0  0  0  0  0
    3.0212    5.5975    0.0095 H   0  0  0  0  0  0  0  0  0  0  0  0
    2.8700    1.8660    1.0000 H   0  0  0  0  0  0  0  0  0  0  0  0
    2.8634   -0.7974    0.1835 H   0  0  0  0  0  0  0  0  0  0  0  0
    2.8634   -0.7974    1.8165 H   0  0  0  0  0  0  0  0  0  0  0  0
    4.3556    1.4368   -0.6499 H   0  0  0  0  0  0  0  0  0  0  0  0
    6.4598    1.1828   -1.5433 H   0  0  0  0  0  0  0  0  0  0  0  0
    6.8416    0.0235   -0.3143 H   0  0  0  0  0  0  0  0  0  0  0  0
    4.5373    1.0644    2.8563 H   0  0  0  0  0  0  0  0  0  0  0  0
    6.0278    1.0609    2.1894 H   0  0  0  0  0  0  0  0  0  0  0  0
    4.5816   -1.3053    3.1838 H   0  0  0  0  0  0  0  0  0  0  0  0
    6.1955   -1.0687    3.2615 H   0  0  0  0  0  0  0  0  0  0  0  0
    6.4094   -1.1104    0.8790 H   0  0  0  0  0  0  0  0  0  0  0  0
    5.0897   -2.0678    0.9709 H   0  0  0  0  0  0  0  0  0  0  0  0
  1  2  1  0  0  0  0
  2  3  1  0  0  0  0
  3  4  2  0  0  0  0
  4  5  1  0  0  0  0
  5  6  2  0  0  0  0
  6  7  1  0  0  0  0
  7  2  2  0  0  0  0
  4  8  1  0  0  0  0
  8  9  1  0  0  0  0
  9 10  1  0  0  0  0
 10 11  2  0  0  0  0
 10 12  1  0  0  0  0
  8 13  1  0  0  0  0
 13 14  2  0  0  0  0
 13 15  1  0  0  0  0
 15 16  1  0  0  0  0
 16 17  1  0  0  0  0
 17 18  1  0  0  0  0
 18 19  2  0  0  0  0
 17 20  1  0  0  0  0
 20 21  1  0  0  0  0
 21 22  1  0  0  0  0
 22 17  1  0  0  0  0
  3 23  1  0  0  0  0
  5 24  1  0  0  0  0
  6 25  1  0  0  0  0
  7 26  1  0  0  0  0
  8 27  1  0  0  0  0
  9 28  1  0  0  0  0
 12 29  1  0  0  0  0
 12 30  1  0  0  0  0
 12 31  1  0  0  0  0
 15 32  1  0  0  0  0
 16 33  1  0  0  0  0
 16 34  1  0  0  0  0
 18 35  1  0  0  0  0
 19 36  1  0  0  0  0
 19 37  1  0  0  0  0
 20 38  1  0  0  0  0
 20 39  1  0  0  0  0
 21 40  1  0  0  0  0
 21 41  1  0  0  0  0
 22 42  1  0  0  0  0
 22 43  1  0  0  0  0
M  END
>  <result-rank>
41

>  <similarity>
0.948

>  <query-name>
LIG_A_1101_CCCC[R*]_2

>  <query-smiles>
O=C(NCCCC)[C@@H](NC(=O)C)Cc1ccc(O)cc1

>  <source>
REALspace_2019-12

>  <similarity-descriptor>
0.969;1.000;1.000;1.000;0.895;0.895;0.895;1.000;1.000;1.000;1.000;0.969;0.0;0.182

>  <similarity-descriptor-smiles>
Brc1ccccc1;C=O;N;C;C1CCC1;C1CCC1;C1CCC1;C;N;C=O;C;Brc1ccccc1;;C.C

>  <reaction-name>
s_22

>  <reagent1-name>
16487112

>  <reagent1-smiles>
[R1*]NCC1(C=C)CCC1

>  <reagent2-name>
12624298

>  <reagent2-smiles>
[R1*]C(=O)C(NC(=O)C)c1cc(Br)ccc1

$$$$
s_2708____16492918____5535004
          04022015093D 1   1.00000     0.00000     0
            
 46 46  0  0  0  0            999 V2000
    6.3333   -1.8661    1.0000 F   0  0  0  0  0  0  0  0  0  0  0  0
    5.0033   -1.8661    1.0000 C   0  0  0  0  0  0  0  0  0  0  0  0
    4.5600   -2.4931    2.0859 F   0  0  0  0  0  0  0  0  0  0  0  0
    4.4967   -0.4331    1.0000 C   0  0  3  0  0  0  0  0  0  0  0  0
    2.9767   -0.4331    1.0000 C   0  0  0  0  0  0  0  0  0  0  0  0
    2.4700    1.0000    1.0000 C   0  0  0  0  0  0  0  0  0  0  0  0
    1.0000    1.0000    1.0000 N   0  0  0  0  0  0  0  0  0  0  0  0
    0.3150    1.0000    2.1865 C   0  0  0  0  0  0  0  0  0  0  0  0
    0.9150    1.0000    3.2257 O   0  0  0  0  0  0  0  0  0  0  0  0
   -1.0550    1.0000    2.1865 N   0  0  0  0  0  0  0  0  0  0  0  0
   -1.7900    1.0000    0.9134 C   0  0  0  0  0  0  0  0  0  0  0  0
   -2.0434   -0.4334    0.4745 C   0  0  0  0  0  0  0  0  0  0  0  0
   -3.2047   -1.0830    0.8798 C   0  0  0  0  0  0  0  0  0  0  0  0
   -3.4322   -2.3948    0.4767 C   0  0  0  0  0  0  0  0  0  0  0  0
   -2.5026   -3.0467   -0.3268 C   0  0  0  0  0  0  0  0  0  0  0  0
   -1.3464   -2.3877   -0.7259 C   0  0  0  0  0  0  0  0  0  0  0  0
   -1.1070   -1.0762   -0.3290 C   0  0  0  0  0  0  0  0  0  0  0  0
   -1.7900    1.0000    3.4595 C   0  0  0  0  0  0  0  0  0  0  0  0
   -2.0433    2.4331    3.8983 C   0  0  3  0  0  0  0  0  0  0  0  0
   -0.8026    3.1025    4.0681 O   0  0  0  0  0  0  0  0  0  0  0  0
   -2.8033    2.4331    5.2147 C   0  0  0  0  0  0  0  0  0  0  0  0
    5.0033    0.2835   -0.2411 C   0  0  0  0  0  0  0  0  0  0  0  0
    4.6700   -2.3375    0.1835 H   0  0  0  0  0  0  0  0  0  0  0  0
    4.8300    0.0383    1.8165 H   0  0  0  0  0  0  0  0  0  0  0  0
    2.6433   -0.9045    1.8165 H   0  0  0  0  0  0  0  0  0  0  0  0
    2.6433   -0.9045    0.1835 H   0  0  0  0  0  0  0  0  0  0  0  0
    2.8033    1.4714    1.8165 H   0  0  0  0  0  0  0  0  0  0  0  0
    2.8033    1.4714    0.1835 H   0  0  0  0  0  0  0  0  0  0  0  0
    0.5000    1.0000    0.1340 H   0  0  0  0  0  0  0  0  0  0  0  0
   -1.2496    1.4714    0.2165 H   0  0  0  0  0  0  0  0  0  0  0  0
   -2.6638    1.4714    1.0330 H   0  0  0  0  0  0  0  0  0  0  0  0
   -3.8710   -0.6105    1.4566 H   0  0  0  0  0  0  0  0  0  0  0  0
   -4.2642   -2.8692    0.7645 H   0  0  0  0  0  0  0  0  0  0  0  0
   -2.6665   -3.9895   -0.6171 H   0  0  0  0  0  0  0  0  0  0  0  0
   -0.6807   -2.8602   -1.3035 H   0  0  0  0  0  0  0  0  0  0  0  0
   -0.2745   -0.6026   -0.6167 H   0  0  0  0  0  0  0  0  0  0  0  0
   -1.2496    0.5286    4.1564 H   0  0  0  0  0  0  0  0  0  0  0  0
   -2.6638    0.5286    3.3399 H   0  0  0  0  0  0  0  0  0  0  0  0
   -2.5838    2.9045    3.2014 H   0  0  0  0  0  0  0  0  0  0  0  0
   -0.9692    4.0453    4.3568 H   0  0  0  0  0  0  0  0  0  0  0  0
   -3.6771    1.9617    5.0951 H   0  0  0  0  0  0  0  0  0  0  0  0
   -2.2629    1.9617    5.9116 H   0  0  0  0  0  0  0  0  0  0  0  0
   -2.9700    3.3759    5.5033 H   0  0  0  0  0  0  0  0  0  0  0  0
    4.6700    1.2263   -0.2411 H   0  0  0  0  0  0  0  0  0  0  0  0
    6.0033    0.2835   -0.2411 H   0  0  0  0  0  0  0  0  0  0  0  0
    4.6700   -0.1879   -1.0576 H   0  0  0  0  0  0  0  0  0  0  0  0
  1  2  1  0  0  0  0
  2  3  1  0  0  0  0
  2  4  1  0  0  0  0
  4  5  1  0  0  0  0
  5  6  1  0  0  0  0
  6  7  1  0  0  0  0
  7  8  1  0  0  0  0
  8  9  2  0  0  0  0
  8 10  1  0  0  0  0
 10 11  1  0  0  0  0
 11 12  1  0  0  0  0
 12 13  1  0  0  0  0
 13 14  2  0  0  0  0
 14 15  1  0  0  0  0
 15 16  2  0  0  0  0
 16 17  1  0  0  0  0
 17 12  2  0  0  0  0
 10 18  1  0  0  0  0
 18 19  1  0  0  0  0
 19 20  1  0  0  0  0
 19 21  1  0  0  0  0
  4 22  1  0  0  0  0
  2 23  1  0  0  0  0
  4 24  1  0  0  0  0
  5 25  1  0  0  0  0
  5 26  1  0  0  0  0
  6 27  1  0  0  0  0
  6 28  1  0  0  0  0
  7 29  1  0  0  0  0
 11 30  1  0  0  0  0
 11 31  1  0  0  0  0
 13 32  1  0  0  0  0
 14 33  1  0  0  0  0
 15 34  1  0  0  0  0
 16 35  1  0  0  0  0
 17 36  1  0  0  0  0
 18 37  1  0  0  0  0
 18 38  1  0  0  0  0
 19 39  1  0  0  0  0
 20 40  1  0  0  0  0
 21 41  1  0  0  0  0
 21 42  1  0  0  0  0
 21 43  1  0  0  0  0
 22 44  1  0  0  0  0
 22 45  1  0  0  0  0
 22 46  1  0  0  0  0
M  END
>  <result-rank>
42

>  <similarity>
0.948

>  <query-name>
LIG_A_1101_CCCC[R*]_2

>  <query-smiles>
O=C(NCCCC)[C@@H](NC(=O)C)Cc1ccc(O)cc1

>  <source>
REALspace_2019-12

>  <similarity-descriptor>
0.960;0.995;1.000;1.000;1.000;0.991;0.991;0.953;0.856;0.856;1.000;0.953;0.0;0.071

>  <similarity-descriptor-smiles>
c1ccccc1;C=O;N;C;C;FC(F)C;FC(F)C;N(C)C;CO;CO;C;N(C)C;;C

>  <reaction-name>
s_2708

>  <reagent1-name>
16492918

>  <reagent1-smiles>
[R1*]C(=O)NCCC(C(F)F)C

>  <reagent2-name>
5535004

>  <reagent2-smiles>
[R1*]N(Cc1ccccc1)CC(O)C

$$$$
s_22____10176180____3003738
          04022015093D 1   1.00000     0.00000     0
            
 45 45  0  0  0  0            999 V2000
   -2.1344    3.5628    1.0000 S   0  0  0  0  0  0  0  0  0  0  0  0
   -3.8242    2.9142    1.0000 C   0  0  0  0  0  0  0  0  0  0  0  0
   -4.1216    2.2750   -0.3466 C   0  0  0  0  0  0  0  0  0  0  0  0
   -3.9671    1.8726    2.0978 C   0  0  0  0  0  0  0  0  0  0  0  0
   -1.2294    1.9953    1.0000 C   0  0  0  0  0  0  0  0  0  0  0  0
    0.2650    2.2731    1.0000 C   0  0  0  0  0  0  0  0  0  0  0  0
    1.0000    1.0000    1.0000 N   0  0  0  0  0  0  0  0  0  0  0  0
    2.3700    1.0000    1.0000 C   0  0  0  0  0  0  0  0  0  0  0  0
    2.9700   -0.0038    0.7310 O   0  0  0  0  0  0  0  0  0  0  0  0
    3.1300    2.2715    1.3407 C   0  0  0  0  0  0  0  0  0  0  0  0
    3.8078    2.1101    2.6916 C   0  0  3  0  0  0  0  0  0  0  0  0
    4.5428    3.3398    3.0211 N   0  0  0  0  0  0  0  0  0  0  0  0
    5.8972    3.2951    3.2224 C   0  0  0  0  0  0  0  0  0  0  0  0
    6.4835    2.2522    3.1298 O   0  0  0  0  0  0  0  0  0  0  0  0
    6.6572    4.5666    3.5631 C   0  0  0  0  0  0  0  0  0  0  0  0
    2.7564    1.8469    3.7579 C   0  0  0  0  0  0  0  0  0  0  0  0
    2.5893    0.5696    4.2828 C   0  0  0  0  0  0  0  0  0  0  0  0
    3.3547   -0.4260    3.8465 F   0  0  0  0  0  0  0  0  0  0  0  0
    1.6288    0.3235    5.2580 C   0  0  0  0  0  0  0  0  0  0  0  0
    0.8336    1.3736    5.7051 C   0  0  0  0  0  0  0  0  0  0  0  0
    0.9885    2.6567    5.1906 C   0  0  0  0  0  0  0  0  0  0  0  0
    1.9534    2.8876    4.2151 C   0  0  0  0  0  0  0  0  0  0  0  0
    2.1127    4.1091    3.7135 F   0  0  0  0  0  0  0  0  0  0  0  0
   -4.4681    3.6615    1.1637 H   0  0  0  0  0  0  0  0  0  0  0  0
   -5.0551    1.9166   -0.3466 H   0  0  0  0  0  0  0  0  0  0  0  0
   -4.0275    2.9602   -1.0689 H   0  0  0  0  0  0  0  0  0  0  0  0
   -3.4776    1.5277   -0.5104 H   0  0  0  0  0  0  0  0  0  0  0  0
   -4.9007    1.5143    2.0978 H   0  0  0  0  0  0  0  0  0  0  0  0
   -3.3232    1.1253    1.9341 H   0  0  0  0  0  0  0  0  0  0  0  0
   -3.7715    2.2931    2.9837 H   0  0  0  0  0  0  0  0  0  0  0  0
   -1.4710    1.4709    0.1835 H   0  0  0  0  0  0  0  0  0  0  0  0
   -1.4710    1.4709    1.8165 H   0  0  0  0  0  0  0  0  0  0  0  0
    0.5066    2.7974    0.1835 H   0  0  0  0  0  0  0  0  0  0  0  0
    0.5066    2.7974    1.8165 H   0  0  0  0  0  0  0  0  0  0  0  0
    0.5000    0.1340    1.0000 H   0  0  0  0  0  0  0  0  0  0  0  0
    2.4926    3.0411    1.3774 H   0  0  0  0  0  0  0  0  0  0  0  0
    3.8215    2.4446    0.6394 H   0  0  0  0  0  0  0  0  0  0  0  0
    4.4452    1.3404    2.6549 H   0  0  0  0  0  0  0  0  0  0  0  0
    4.0542    4.2088    3.0983 H   0  0  0  0  0  0  0  0  0  0  0  0
    6.0198    5.3363    3.5999 H   0  0  0  0  0  0  0  0  0  0  0  0
    7.1031    4.4605    4.4519 H   0  0  0  0  0  0  0  0  0  0  0  0
    7.3487    4.7397    2.8618 H   0  0  0  0  0  0  0  0  0  0  0  0
    1.5115   -0.5962    5.6329 H   0  0  0  0  0  0  0  0  0  0  0  0
    0.1409    1.2038    6.4061 H   0  0  0  0  0  0  0  0  0  0  0  0
    0.4124    3.4054    5.5184 H   0  0  0  0  0  0  0  0  0  0  0  0
  1  2  1  0  0  0  0
  2  3  1  0  0  0  0
  2  4  1  0  0  0  0
  1  5  1  0  0  0  0
  5  6  1  0  0  0  0
  6  7  1  0  0  0  0
  7  8  1  0  0  0  0
  8  9  2  0  0  0  0
  8 10  1  0  0  0  0
 10 11  1  0  0  0  0
 11 12  1  0  0  0  0
 12 13  1  0  0  0  0
 13 14  2  0  0  0  0
 13 15  1  0  0  0  0
 11 16  1  0  0  0  0
 16 17  1  0  0  0  0
 17 18  1  0  0  0  0
 17 19  2  0  0  0  0
 19 20  1  0  0  0  0
 20 21  2  0  0  0  0
 21 22  1  0  0  0  0
 22 16  2  0  0  0  0
 22 23  1  0  0  0  0
  2 24  1  0  0  0  0
  3 25  1  0  0  0  0
  3 26  1  0  0  0  0
  3 27  1  0  0  0  0
  4 28  1  0  0  0  0
  4 29  1  0  0  0  0
  4 30  1  0  0  0  0
  5 31  1  0  0  0  0
  5 32  1  0  0  0  0
  6 33  1  0  0  0  0
  6 34  1  0  0  0  0
  7 35  1  0  0  0  0
 10 36  1  0  0  0  0
 10 37  1  0  0  0  0
 11 38  1  0  0  0  0
 12 39  1  0  0  0  0
 15 40  1  0  0  0  0
 15 41  1  0  0  0  0
 15 42  1  0  0  0  0
 19 43  1  0  0  0  0
 20 44  1  0  0  0  0
 21 45  1  0  0  0  0
M  END
>  <result-rank>
43

>  <similarity>
0.948

>  <query-name>
LIG_A_1101_CCCC[R*]_2

>  <query-smiles>
O=C(NCCCC)[C@@H](NC(=O)C)Cc1ccc(O)cc1

>  <source>
REALspace_2019-12

>  <similarity-descriptor>
0.948;1.000;1.000;0.999;0.999;0.832;0.832;1.000;1.000;1.000;1.000;1.000;0.0;0.071

>  <similarity-descriptor-smiles>
c1c(cccc1F)F;C=O;N;CC;CC;SCC;SCC;CC;N;C=O;C;CC;;C

>  <reaction-name>
s_22

>  <reagent1-name>
10176180

>  <reagent1-smiles>
[R1*]NCCSC(C)C

>  <reagent2-name>
3003738

>  <reagent2-smiles>
[R1*]C(=O)CC(NC(=O)C)c1c(F)cccc1F

$$$$
s_22____13427692____17513450
          04022015093D 1   1.00000     0.00000     0
            
 45 47  0  0  0  0            999 V2000
    3.0596    1.6786    1.9338 O   0  0  0  0  0  0  0  0  0  0  0  0
    1.8776    1.8776    1.8776 C   0  0  0  0  0  0  0  0  0  0  0  0
    1.3190    2.8957    2.6044 N   0  0  0  0  0  0  0  0  0  0  0  0
    2.1608    3.7375    3.4461 C   0  0  3  0  0  0  0  0  0  0  0  0
    2.1629    5.2064    3.1158 C   0  0  0  0  0  0  0  0  0  0  0  0
    3.3470    6.1491    2.9548 C   0  0  0  0  0  0  0  0  0  0  0  0
    2.3987    7.1516    2.3509 C   0  0  3  0  0  0  0  0  0  0  0  0
    3.0068    7.8432    1.2682 O   0  0  0  0  0  0  0  0  0  0  0  0
    1.6846    5.9175    1.8703 C   0  0  0  0  0  0  0  0  0  0  0  0
    1.4428    4.7129    4.3398 C   0  0  0  0  0  0  0  0  0  0  0  0
    1.0000    1.0000    1.0000 C   0  0  3  0  0  0  0  0  0  0  0  0
   -0.2629    0.7171    1.6971 N   0  0  0  0  0  0  0  0  0  0  0  0
   -0.6150   -0.5766    1.9787 C   0  0  0  0  0  0  0  0  0  0  0  0
    0.1075   -1.4788    1.6563 O   0  0  0  0  0  0  0  0  0  0  0  0
   -1.9209   -0.8691    2.6995 C   0  0  0  0  0  0  0  0  0  0  0  0
    0.7075    1.7208   -0.3059 C   0  0  0  0  0  0  0  0  0  0  0  0
   -0.1701    0.8432   -1.1835 C   0  0  0  0  0  0  0  0  0  0  0  0
   -1.5540    0.9425   -1.0842 C   0  0  0  0  0  0  0  0  0  0  0  0
   -2.3610    0.1420   -1.8857 C   0  0  0  0  0  0  0  0  0  0  0  0
   -1.7726   -0.7486   -2.7781 C   0  0  0  0  0  0  0  0  0  0  0  0
   -2.5520   -1.5276   -3.5577 O   0  0  0  0  0  0  0  0  0  0  0  0
   -0.3891   -0.8520   -2.8811 C   0  0  0  0  0  0  0  0  0  0  0  0
    0.4131   -0.0489   -2.0774 C   0  0  0  0  0  0  0  0  0  0  0  0
    0.3340    3.0616    2.5576 H   0  0  0  0  0  0  0  0  0  0  0  0
    3.0129    3.3411    3.7878 H   0  0  0  0  0  0  0  0  0  0  0  0
    4.0571    5.8213    2.3317 H   0  0  0  0  0  0  0  0  0  0  0  0
    3.7664    6.4397    3.8148 H   0  0  0  0  0  0  0  0  0  0  0  0
    1.8947    7.7198    3.0014 H   0  0  0  0  0  0  0  0  0  0  0  0
    2.3577    8.5010    0.8862 H   0  0  0  0  0  0  0  0  0  0  0  0
    0.6914    6.0133    1.8042 H   0  0  0  0  0  0  0  0  0  0  0  0
    2.0407    5.5397    1.0156 H   0  0  0  0  0  0  0  0  0  0  0  0
    0.4432    4.7216    4.3692 H   0  0  0  0  0  0  0  0  0  0  0  0
    1.8048    4.9175    5.2493 H   0  0  0  0  0  0  0  0  0  0  0  0
    1.4742    0.1409    0.8075 H   0  0  0  0  0  0  0  0  0  0  0  0
   -0.8650    1.4689    1.9658 H   0  0  0  0  0  0  0  0  0  0  0  0
   -2.3951   -0.0100    2.8919 H   0  0  0  0  0  0  0  0  0  0  0  0
   -2.4982   -1.4465    2.1221 H   0  0  0  0  0  0  0  0  0  0  0  0
   -1.7284   -1.3433    3.5586 H   0  0  0  0  0  0  0  0  0  0  0  0
    0.2333    2.5799   -0.1134 H   0  0  0  0  0  0  0  0  0  0  0  0
    1.5666    1.9133   -0.7801 H   0  0  0  0  0  0  0  0  0  0  0  0
   -1.9667    1.5862   -0.4397 H   0  0  0  0  0  0  0  0  0  0  0  0
   -3.3569    0.2061   -1.8211 H   0  0  0  0  0  0  0  0  0  0  0  0
   -2.1337   -2.1692   -4.2005 H   0  0  0  0  0  0  0  0  0  0  0  0
    0.0237   -1.4961   -3.5251 H   0  0  0  0  0  0  0  0  0  0  0  0
    1.4089   -0.1127   -2.1423 H   0  0  0  0  0  0  0  0  0  0  0  0
  1  2  2  0  0  0  0
  2  3  1  0  0  0  0
  3  4  1  0  0  0  0
  4  5  1  0  0  0  0
  5  6  1  0  0  0  0
  6  7  1  0  0  0  0
  7  8  1  0  0  0  0
  7  9  1  0  0  0  0
  9  5  1  0  0  0  0
  5 10  1  0  0  0  0
 10  4  1  0  0  0  0
  2 11  1  0  0  0  0
 11 12  1  0  0  0  0
 12 13  1  0  0  0  0
 13 14  2  0  0  0  0
 13 15  1  0  0  0  0
 11 16  1  0  0  0  0
 16 17  1  0  0  0  0
 17 18  1  0  0  0  0
 18 19  2  0  0  0  0
 19 20  1  0  0  0  0
 20 21  1  0  0  0  0
 20 22  2  0  0  0  0
 22 23  1  0  0  0  0
 23 17  2  0  0  0  0
  3 24  1  0  0  0  0
  4 25  1  0  0  0  0
  6 26  1  0  0  0  0
  6 27  1  0  0  0  0
  7 28  1  0  0  0  0
  8 29  1  0  0  0  0
  9 30  1  0  0  0  0
  9 31  1  0  0  0  0
 10 32  1  0  0  0  0
 10 33  1  0  0  0  0
 11 34  1  0  0  0  0
 12 35  1  0  0  0  0
 15 36  1  0  0  0  0
 15 37  1  0  0  0  0
 15 38  1  0  0  0  0
 16 39  1  0  0  0  0
 16 40  1  0  0  0  0
 18 41  1  0  0  0  0
 19 42  1  0  0  0  0
 21 43  1  0  0  0  0
 22 44  1  0  0  0  0
 23 45  1  0  0  0  0
M  END
>  <result-rank>
44

>  <similarity>
0.948

>  <query-name>
LIG_A_1101_CCCC[R*]_2

>  <query-smiles>
O=C(NCCCC)[C@@H](NC(=O)C)Cc1ccc(O)cc1

>  <source>
REALspace_2019-12

>  <similarity-descriptor>
1.000;1.000;1.000;0.887;0.887;0.745;0.745;1.000;1.000;1.000;1.000;1.000;1.000;0.083

>  <similarity-descriptor-smiles>
c1ccccc1;O=C;N;C1CC1;C1CC1;C1CCC1;C1CCC1;C;N;C=O;C;C;O;O

>  <reaction-name>
s_22

>  <reagent1-name>
13427692

>  <reagent1-smiles>
[R1*]NC1C2(C1)CC(O)C2

>  <reagent2-name>
17513450

>  <reagent2-smiles>
[R1*]C(=O)C(NC(=O)C)Cc1ccc(O)cc1

$$$$
s_22____15086876____17513450
          04022015093D 1   1.00000     0.00000     0
            
 47 48  0  0  0  0            999 V2000
    0.4000    1.9154    1.4919 O   0  0  0  0  0  0  0  0  0  0  0  0
    1.0000    1.0000    1.0000 C   0  0  0  0  0  0  0  0  0  0  0  0
    2.4095    1.0000    1.0000 N   0  0  0  0  0  0  0  0  0  0  0  0
    3.4527    1.9031    1.4853 C   0  0  0  0  0  0  0  0  0  0  0  0
    4.3156    0.6726    1.6008 C   0  0  0  0  0  0  0  0  0  0  0  0
    5.6587    0.9012    1.2005 O   0  0  0  0  0  0  0  0  0  0  0  0
    3.4523    0.1200    0.4804 C   0  0  0  0  0  0  0  0  0  0  0  0
    4.1906   -0.0620    2.9256 C   0  0  0  0  0  0  0  0  0  0  0  0
    5.1038   -1.2771    2.9193 C   0  0  0  0  0  0  0  0  0  0  0  0
    4.9788   -2.0117    4.2441 C   0  0  0  0  0  0  0  0  0  0  0  0
    0.2400   -0.1596    0.3769 C   0  0  3  0  0  0  0  0  0  0  0  0
   -1.0444    0.3233   -0.1503 N   0  0  0  0  0  0  0  0  0  0  0  0
   -1.1292    0.7733   -1.4415 C   0  0  0  0  0  0  0  0  0  0  0  0
   -0.1550    0.7734   -2.1421 O   0  0  0  0  0  0  0  0  0  0  0  0
   -2.4574    1.2726   -1.9866 C   0  0  0  0  0  0  0  0  0  0  0  0
   -0.0133   -1.2244    1.4316 C   0  0  0  0  0  0  0  0  0  0  0  0
   -0.7734   -2.3840    0.8085 C   0  0  0  0  0  0  0  0  0  0  0  0
   -0.0668   -3.4394    0.2414 C   0  0  0  0  0  0  0  0  0  0  0  0
   -0.7580   -4.5030   -0.3292 C   0  0  0  0  0  0  0  0  0  0  0  0
   -2.1493   -4.4975   -0.3249 C   0  0  0  0  0  0  0  0  0  0  0  0
   -2.8591   -5.5810   -0.9066 O   0  0  0  0  0  0  0  0  0  0  0  0
   -2.8607   -3.4443    0.2407 C   0  0  0  0  0  0  0  0  0  0  0  0
   -2.1644   -2.3835    0.8103 C   0  0  0  0  0  0  0  0  0  0  0  0
    3.2479    2.3582    2.3519 H   0  0  0  0  0  0  0  0  0  0  0  0
    3.7687    2.5796    0.8201 H   0  0  0  0  0  0  0  0  0  0  0  0
    6.1838    0.0557    1.2970 H   0  0  0  0  0  0  0  0  0  0  0  0
    3.7678    0.3367   -0.4435 H   0  0  0  0  0  0  0  0  0  0  0  0
    3.2516   -0.8576    0.5433 H   0  0  0  0  0  0  0  0  0  0  0  0
    3.2439   -0.3572    3.0550 H   0  0  0  0  0  0  0  0  0  0  0  0
    4.4541    0.5492    3.6718 H   0  0  0  0  0  0  0  0  0  0  0  0
    6.0505   -0.9819    2.7899 H   0  0  0  0  0  0  0  0  0  0  0  0
    4.8403   -1.8883    2.1731 H   0  0  0  0  0  0  0  0  0  0  0  0
    5.5796   -2.8111    4.2400 H   0  0  0  0  0  0  0  0  0  0  0  0
    5.2423   -1.4004    4.9904 H   0  0  0  0  0  0  0  0  0  0  0  0
    4.0322   -2.3069    4.3735 H   0  0  0  0  0  0  0  0  0  0  0  0
    0.7804   -0.5503   -0.3682 H   0  0  0  0  0  0  0  0  0  0  0  0
   -1.8563    0.3232    0.4335 H   0  0  0  0  0  0  0  0  0  0  0  0
   -3.1569    1.2032   -1.2754 H   0  0  0  0  0  0  0  0  0  0  0  0
   -2.3637    2.2270   -2.2701 H   0  0  0  0  0  0  0  0  0  0  0  0
   -2.7253    0.7160   -2.7731 H   0  0  0  0  0  0  0  0  0  0  0  0
    0.8604   -1.5529    1.7903 H   0  0  0  0  0  0  0  0  0  0  0  0
   -0.5538   -0.8336    2.1767 H   0  0  0  0  0  0  0  0  0  0  0  0
    0.9332   -3.4336    0.2439 H   0  0  0  0  0  0  0  0  0  0  0  0
   -0.2586   -5.2660   -0.7396 H   0  0  0  0  0  0  0  0  0  0  0  0
   -3.8591   -5.5815   -0.9059 H   0  0  0  0  0  0  0  0  0  0  0  0
   -3.8607   -3.4498    0.2377 H   0  0  0  0  0  0  0  0  0  0  0  0
   -2.6638   -1.6207    1.2210 H   0  0  0  0  0  0  0  0  0  0  0  0
  1  2  2  0  0  0  0
  2  3  1  0  0  0  0
  3  4  1  0  0  0  0
  4  5  1  0  0  0  0
  5  6  1  0  0  0  0
  5  7  1  0  0  0  0
  7  3  1  0  0  0  0
  5  8  1  0  0  0  0
  8  9  1  0  0  0  0
  9 10  1  0  0  0  0
  2 11  1  0  0  0  0
 11 12  1  0  0  0  0
 12 13  1  0  0  0  0
 13 14  2  0  0  0  0
 13 15  1  0  0  0  0
 11 16  1  0  0  0  0
 16 17  1  0  0  0  0
 17 18  1  0  0  0  0
 18 19  2  0  0  0  0
 19 20  1  0  0  0  0
 20 21  1  0  0  0  0
 20 22  2  0  0  0  0
 22 23  1  0  0  0  0
 23 17  2  0  0  0  0
  4 24  1  0  0  0  0
  4 25  1  0  0  0  0
  6 26  1  0  0  0  0
  7 27  1  0  0  0  0
  7 28  1  0  0  0  0
  8 29  1  0  0  0  0
  8 30  1  0  0  0  0
  9 31  1  0  0  0  0
  9 32  1  0  0  0  0
 10 33  1  0  0  0  0
 10 34  1  0  0  0  0
 10 35  1  0  0  0  0
 11 36  1  0  0  0  0
 12 37  1  0  0  0  0
 15 38  1  0  0  0  0
 15 39  1  0  0  0  0
 15 40  1  0  0  0  0
 16 41  1  0  0  0  0
 16 42  1  0  0  0  0
 18 43  1  0  0  0  0
 19 44  1  0  0  0  0
 21 45  1  0  0  0  0
 22 46  1  0  0  0  0
 23 47  1  0  0  0  0
M  END
>  <result-rank>
45

>  <similarity>
0.948

>  <query-name>
LIG_A_1101_CCCC[R*]_2

>  <query-smiles>
O=C(NCCCC)[C@@H](NC(=O)C)Cc1ccc(O)cc1

>  <source>
REALspace_2019-12

>  <similarity-descriptor>
1.000;0.852;0.852;0.877;0.877;1.000;0.949;1.000;1.000;1.000;1.000;1.000;1.000;0.154

>  <similarity-descriptor-smiles>
c1ccccc1;O=C;O=C;N1CCC1;N1CCC1;C;C;C;N;C=O;C;C;O;O.C

>  <reaction-name>
s_22

>  <reagent1-name>
15086876

>  <reagent1-smiles>
[R1*]N1CC(O)(C1)CCC

>  <reagent2-name>
17513450

>  <reagent2-smiles>
[R1*]C(=O)C(NC(=O)C)Cc1ccc(O)cc1

$$$$
s_270062____7629082____8147258
          04022015093D 1   1.00000     0.00000     0
            
 35 35  0  0  0  0            999 V2000
    8.8219    3.3618    2.2273 Cl  0  0  0  0  0  0  0  0  0  0  0  0
    8.7516    1.5846    2.1565 C   0  0  0  0  0  0  0  0  0  0  0  0
    7.3001    1.1338    2.1763 C   0  0  0  0  0  0  0  0  0  0  0  0
    6.7545    0.9134    3.2221 O   0  0  0  0  0  0  0  0  0  0  0  0
    6.6147    0.9791    1.0002 N   0  0  0  0  0  0  0  0  0  0  0  0
    5.2153    0.9799    1.0000 C   0  0  0  0  0  0  0  0  0  0  0  0
    4.5197   -0.2237    0.9475 C   0  0  0  0  0  0  0  0  0  0  0  0
    3.1287   -0.2134    0.9480 C   0  0  0  0  0  0  0  0  0  0  0  0
    2.4501    1.0000    1.0000 C   0  0  0  0  0  0  0  0  0  0  0  0
    3.1449    2.2034    1.0523 C   0  0  0  0  0  0  0  0  0  0  0  0
    4.5359    2.1932    1.0521 C   0  0  0  0  0  0  0  0  0  0  0  0
    1.0000    1.0000    1.0000 C   0  0  0  0  0  0  0  0  0  0  0  0
    0.4000   -0.0383    0.9555 O   0  0  0  0  0  0  0  0  0  0  0  0
    0.3150    2.1854    1.0508 N   0  0  0  0  0  0  0  0  0  0  0  0
   -1.1550    2.1854    1.0508 C   0  0  3  0  0  0  0  0  0  0  0  0
   -1.6617    2.1240    2.4826 C   0  0  0  0  0  0  0  0  0  0  0  0
   -3.1817    2.1240    2.4826 C   0  0  0  0  0  0  0  0  0  0  0  0
   -1.6617    3.4560    0.3881 C   0  0  0  0  0  0  0  0  0  0  0  0
    9.2308    1.2003    2.9456 H   0  0  0  0  0  0  0  0  0  0  0  0
    9.1878    1.2670    1.3145 H   0  0  0  0  0  0  0  0  0  0  0  0
    7.1146    0.8656    0.1416 H   0  0  0  0  0  0  0  0  0  0  0  0
    5.0165   -1.0907    0.9096 H   0  0  0  0  0  0  0  0  0  0  0  0
    2.6195   -1.0732    0.9111 H   0  0  0  0  0  0  0  0  0  0  0  0
    2.6480    3.0704    1.0898 H   0  0  0  0  0  0  0  0  0  0  0  0
    5.0449    3.0531    1.0892 H   0  0  0  0  0  0  0  0  0  0  0  0
    0.8150    3.0506    1.0879 H   0  0  0  0  0  0  0  0  0  0  0  0
   -1.4883    1.3898    0.5449 H   0  0  0  0  0  0  0  0  0  0  0  0
   -1.3283    2.9195    2.9885 H   0  0  0  0  0  0  0  0  0  0  0  0
   -1.3283    1.2880    2.9186 H   0  0  0  0  0  0  0  0  0  0  0  0
   -3.5150    2.0836    3.4245 H   0  0  0  0  0  0  0  0  0  0  0  0
   -3.5150    2.9599    2.0466 H   0  0  0  0  0  0  0  0  0  0  0  0
   -3.5150    1.3284    1.9766 H   0  0  0  0  0  0  0  0  0  0  0  0
   -2.6617    3.4560    0.3881 H   0  0  0  0  0  0  0  0  0  0  0  0
   -1.3283    4.2515    0.8941 H   0  0  0  0  0  0  0  0  0  0  0  0
   -1.3283    3.4964   -0.5538 H   0  0  0  0  0  0  0  0  0  0  0  0
  1  2  1  0  0  0  0
  2  3  1  0  0  0  0
  3  4  2  0  0  0  0
  3  5  1  0  0  0  0
  5  6  1  0  0  0  0
  6  7  1  0  0  0  0
  7  8  2  0  0  0  0
  8  9  1  0  0  0  0
  9 10  2  0  0  0  0
 10 11  1  0  0  0  0
 11  6  2  0  0  0  0
  9 12  1  0  0  0  0
 12 13  2  0  0  0  0
 12 14  1  0  0  0  0
 14 15  1  0  0  0  0
 15 16  1  0  0  0  0
 16 17  1  0  0  0  0
 15 18  1  0  0  0  0
  2 19  1  0  0  0  0
  2 20  1  0  0  0  0
  5 21  1  0  0  0  0
  7 22  1  0  0  0  0
  8 23  1  0  0  0  0
 10 24  1  0  0  0  0
 11 25  1  0  0  0  0
 14 26  1  0  0  0  0
 15 27  1  0  0  0  0
 16 28  1  0  0  0  0
 16 29  1  0  0  0  0
 17 30  1  0  0  0  0
 17 31  1  0  0  0  0
 17 32  1  0  0  0  0
 18 33  1  0  0  0  0
 18 34  1  0  0  0  0
 18 35  1  0  0  0  0
M  END
>  <result-rank>
46

>  <similarity>
0.947

>  <query-name>
LIG_A_1101_CCCC[R*]_2

>  <query-smiles>
O=C(NCCCC)[C@@H](NC(=O)C)Cc1ccc(O)cc1

>  <source>
REALspace_2019-12

>  <similarity-descriptor>
0.893;1.000;1.000;0.998;0.998;1.000;1.000;0.893;1.000;1.000;0.951;0.893;0.0;0.0

>  <similarity-descriptor-smiles>
c1ccccc1;C=O;N;CC;CC;C;C;c1ccccc1;N;C=O;ClC;c1ccccc1;;

>  <reaction-name>
s_270062

>  <reagent1-name>
7629082

>  <reagent1-smiles>
[R1*]Nc1ccc(cc1)C(=O)NC(CC)C

>  <reagent2-name>
8147258

>  <reagent2-smiles>
[R1*]C(=O)CCl

$$$$
s_22____9277640____17513450
          04022015093D 1   1.00000     0.00000     0
            
 43 43  0  0  0  0            999 V2000
    2.9700    2.0392    1.0000 O   0  0  0  0  0  0  0  0  0  0  0  0
    2.3700    1.0000    1.0000 C   0  0  0  0  0  0  0  0  0  0  0  0
    1.0000    1.0000    1.0000 N   0  0  0  0  0  0  0  0  0  0  0  0
    0.2650    2.2731    1.0000 C   0  0  0  0  0  0  0  0  0  0  0  0
    0.2272    2.8363   -0.4113 C   0  0  0  0  0  0  0  0  0  0  0  0
   -0.9141    3.0403   -0.9993 C   0  0  0  0  0  0  0  0  0  0  0  0
   -0.9519    3.6036   -2.4106 C   0  0  0  0  0  0  0  0  0  0  0  0
   -2.2107    2.7158   -0.2756 C   0  0  0  0  0  0  0  0  0  0  0  0
    3.1300   -0.3164    1.0000 C   0  0  3  0  0  0  0  0  0  0  0  0
    4.5752   -0.0477    1.0000 N   0  0  0  0  0  0  0  0  0  0  0  0
    5.3571   -0.5058    2.0275 C   0  0  0  0  0  0  0  0  0  0  0  0
    4.8622   -1.1263    2.9275 O   0  0  0  0  0  0  0  0  0  0  0  0
    6.8515   -0.2281    2.0275 C   0  0  0  0  0  0  0  0  0  0  0  0
    2.7628   -1.1134   -0.2411 C   0  0  0  0  0  0  0  0  0  0  0  0
    3.5228   -2.4298   -0.2411 C   0  0  0  0  0  0  0  0  0  0  0  0
    2.9568   -3.5469    0.3644 C   0  0  0  0  0  0  0  0  0  0  0  0
    3.6482   -4.7537    0.3662 C   0  0  0  0  0  0  0  0  0  0  0  0
    4.8987   -4.8280   -0.2391 C   0  0  0  0  0  0  0  0  0  0  0  0
    5.5734   -5.9972   -0.2393 O   0  0  0  0  0  0  0  0  0  0  0  0
    5.4695   -3.7138   -0.8457 C   0  0  0  0  0  0  0  0  0  0  0  0
    4.7735   -2.5097   -0.8449 C   0  0  0  0  0  0  0  0  0  0  0  0
    0.5000    0.1340    1.0000 H   0  0  0  0  0  0  0  0  0  0  0  0
    0.7238    2.9228    1.6060 H   0  0  0  0  0  0  0  0  0  0  0  0
   -0.6689    2.1188    1.3225 H   0  0  0  0  0  0  0  0  0  0  0  0
    1.0802    3.0498   -0.8874 H   0  0  0  0  0  0  0  0  0  0  0  0
   -1.9025    3.6963   -2.7072 H   0  0  0  0  0  0  0  0  0  0  0  0
   -0.5097    4.5004   -2.4236 H   0  0  0  0  0  0  0  0  0  0  0  0
   -0.4685    2.9846   -3.0296 H   0  0  0  0  0  0  0  0  0  0  0  0
   -2.9865    2.9317   -0.8685 H   0  0  0  0  0  0  0  0  0  0  0  0
   -2.2288    1.7431   -0.0441 H   0  0  0  0  0  0  0  0  0  0  0  0
   -2.2700    3.2589    0.5620 H   0  0  0  0  0  0  0  0  0  0  0  0
    2.8884   -0.8407    1.8165 H   0  0  0  0  0  0  0  0  0  0  0  0
    4.9877    0.4693    0.2500 H   0  0  0  0  0  0  0  0  0  0  0  0
    7.0931    0.2963    1.2110 H   0  0  0  0  0  0  0  0  0  0  0  0
    7.0931    0.2963    2.8440 H   0  0  0  0  0  0  0  0  0  0  0  0
    7.3515   -1.0941    2.0275 H   0  0  0  0  0  0  0  0  0  0  0  0
    1.7796   -1.2961   -0.2411 H   0  0  0  0  0  0  0  0  0  0  0  0
    3.0044   -0.5890   -1.0576 H   0  0  0  0  0  0  0  0  0  0  0  0
    2.0571   -3.4826    0.7963 H   0  0  0  0  0  0  0  0  0  0  0  0
    3.2494   -5.5620    0.7993 H   0  0  0  0  0  0  0  0  0  0  0  0
    6.4725   -6.0555   -0.6731 H   0  0  0  0  0  0  0  0  0  0  0  0
    6.3694   -3.7778   -1.2771 H   0  0  0  0  0  0  0  0  0  0  0  0
    5.1720   -1.7014   -1.2783 H   0  0  0  0  0  0  0  0  0  0  0  0
  1  2  2  0  0  0  0
  2  3  1  0  0  0  0
  3  4  1  0  0  0  0
  4  5  1  0  0  0  0
  5  6  2  0  0  0  0
  6  7  1  0  0  0  0
  6  8  1  0  0  0  0
  2  9  1  0  0  0  0
  9 10  1  0  0  0  0
 10 11  1  0  0  0  0
 11 12  2  0  0  0  0
 11 13  1  0  0  0  0
  9 14  1  0  0  0  0
 14 15  1  0  0  0  0
 15 16  1  0  0  0  0
 16 17  2  0  0  0  0
 17 18  1  0  0  0  0
 18 19  1  0  0  0  0
 18 20  2  0  0  0  0
 20 21  1  0  0  0  0
 21 15  2  0  0  0  0
  3 22  1  0  0  0  0
  4 23  1  0  0  0  0
  4 24  1  0  0  0  0
  5 25  1  0  0  0  0
  7 26  1  0  0  0  0
  7 27  1  0  0  0  0
  7 28  1  0  0  0  0
  8 29  1  0  0  0  0
  8 30  1  0  0  0  0
  8 31  1  0  0  0  0
  9 32  1  0  0  0  0
 10 33  1  0  0  0  0
 13 34  1  0  0  0  0
 13 35  1  0  0  0  0
 13 36  1  0  0  0  0
 14 37  1  0  0  0  0
 14 38  1  0  0  0  0
 16 39  1  0  0  0  0
 17 40  1  0  0  0  0
 19 41  1  0  0  0  0
 20 42  1  0  0  0  0
 21 43  1  0  0  0  0
M  END
>  <result-rank>
47

>  <similarity>
0.947

>  <query-name>
LIG_A_1101_CCCC[R*]_2

>  <query-smiles>
O=C(NCCCC)[C@@H](NC(=O)C)Cc1ccc(O)cc1

>  <source>
REALspace_2019-12

>  <similarity-descriptor>
1.000;1.000;0.859;0.859;0.633;0.633;1.000;1.000;1.000;1.000;1.000;1.000;1.000;0.0

>  <similarity-descriptor-smiles>
c1ccccc1;O=C;NCC;NCC;CC;CC;C;C;N;C=O;C;C;O;

>  <reaction-name>
s_22

>  <reagent1-name>
9277640

>  <reagent1-smiles>
[R1*]NCC=C(C)C

>  <reagent2-name>
17513450

>  <reagent2-smiles>
[R1*]C(=O)C(NC(=O)C)Cc1ccc(O)cc1

$$$$
s_2708____16492918____14595632
          04022015093D 1   1.00000     0.00000     0
            
 49 49  0  0  0  0            999 V2000
    3.1535    1.7376    6.8264 F   0  0  0  0  0  0  0  0  0  0  0  0
    3.5952    1.1103    5.7397 C   0  0  0  0  0  0  0  0  0  0  0  0
    2.8393    0.0878    5.1755 C   0  0  0  0  0  0  0  0  0  0  0  0
    3.3081   -0.5642    4.0396 C   0  0  0  0  0  0  0  0  0  0  0  0
    4.5251   -0.1865    3.4820 C   0  0  0  0  0  0  0  0  0  0  0  0
    5.2764    0.8367    4.0499 C   0  0  0  0  0  0  0  0  0  0  0  0
    4.8125    1.4924    5.1854 C   0  0  0  0  0  0  0  0  0  0  0  0
    5.0317   -0.9030    2.2411 C   0  0  0  0  0  0  0  0  0  0  0  0
    4.5250   -0.1865    1.0000 C   0  0  3  0  0  0  0  0  0  0  0  0
    3.0550   -0.1865    1.0000 N   0  0  0  0  0  0  0  0  0  0  0  0
    2.3700    1.0000    1.0000 C   0  0  0  0  0  0  0  0  0  0  0  0
    2.9700    2.0392    1.0000 O   0  0  0  0  0  0  0  0  0  0  0  0
    1.0000    1.0000    1.0000 N   0  0  0  0  0  0  0  0  0  0  0  0
    0.2650    2.2731    1.0000 C   0  0  0  0  0  0  0  0  0  0  0  0
    0.2272    2.8363   -0.4113 C   0  0  0  0  0  0  0  0  0  0  0  0
   -0.5328    4.1526   -0.4113 C   0  0  3  0  0  0  0  0  0  0  0  0
   -0.5706    4.7158   -1.8226 C   0  0  0  0  0  0  0  0  0  0  0  0
   -1.2356    5.8677   -1.8226 F   0  0  0  0  0  0  0  0  0  0  0  0
    0.6715    4.9211   -2.2515 F   0  0  0  0  0  0  0  0  0  0  0  0
   -1.9524    3.9181    0.0788 C   0  0  0  0  0  0  0  0  0  0  0  0
    5.0317   -0.9030   -0.2411 C   0  0  0  0  0  0  0  0  0  0  0  0
    4.5583   -0.2336   -1.4005 O   0  0  0  0  0  0  0  0  0  0  0  0
    6.5517   -0.9030   -0.2411 C   0  0  0  0  0  0  0  0  0  0  0  0
    4.5250   -2.3361   -0.2411 C   0  0  0  0  0  0  0  0  0  0  0  0
    1.9654   -0.1766    5.5835 H   0  0  0  0  0  0  0  0  0  0  0  0
    2.7728   -1.3006    3.6260 H   0  0  0  0  0  0  0  0  0  0  0  0
    6.1502    1.1012    3.6417 H   0  0  0  0  0  0  0  0  0  0  0  0
    5.3476    2.2295    5.5983 H   0  0  0  0  0  0  0  0  0  0  0  0
    4.6983   -1.8458    2.2411 H   0  0  0  0  0  0  0  0  0  0  0  0
    6.0317   -0.9030    2.2411 H   0  0  0  0  0  0  0  0  0  0  0  0
    4.8583    0.7564    1.0000 H   0  0  0  0  0  0  0  0  0  0  0  0
    2.5550   -1.0525    1.0000 H   0  0  0  0  0  0  0  0  0  0  0  0
    0.5000    0.1340    1.0000 H   0  0  0  0  0  0  0  0  0  0  0  0
    0.7238    2.9228    1.6060 H   0  0  0  0  0  0  0  0  0  0  0  0
   -0.6689    2.1188    1.3225 H   0  0  0  0  0  0  0  0  0  0  0  0
    1.1611    2.9906   -0.7338 H   0  0  0  0  0  0  0  0  0  0  0  0
   -0.2316    2.1865   -1.0173 H   0  0  0  0  0  0  0  0  0  0  0  0
   -0.0740    4.8024    0.1947 H   0  0  0  0  0  0  0  0  0  0  0  0
   -1.0295    4.0660   -2.4286 H   0  0  0  0  0  0  0  0  0  0  0  0
   -1.9275    3.5476    1.0073 H   0  0  0  0  0  0  0  0  0  0  0  0
   -2.4524    4.7841    0.0788 H   0  0  0  0  0  0  0  0  0  0  0  0
   -2.4112    3.2683   -0.5272 H   0  0  0  0  0  0  0  0  0  0  0  0
    4.8917   -0.7050   -2.2170 H   0  0  0  0  0  0  0  0  0  0  0  0
    6.8850   -1.3744    0.5754 H   0  0  0  0  0  0  0  0  0  0  0  0
    6.8850   -1.3744   -1.0576 H   0  0  0  0  0  0  0  0  0  0  0  0
    6.8850    0.0398   -0.2411 H   0  0  0  0  0  0  0  0  0  0  0  0
    4.8583   -2.8075    0.5754 H   0  0  0  0  0  0  0  0  0  0  0  0
    3.5250   -2.3361   -0.2411 H   0  0  0  0  0  0  0  0  0  0  0  0
    4.8583   -2.8075   -1.0576 H   0  0  0  0  0  0  0  0  0  0  0  0
  1  2  1  0  0  0  0
  2  3  1  0  0  0  0
  3  4  2  0  0  0  0
  4  5  1  0  0  0  0
  5  6  2  0  0  0  0
  6  7  1  0  0  0  0
  7  2  2  0  0  0  0
  5  8  1  0  0  0  0
  8  9  1  0  0  0  0
  9 10  1  0  0  0  0
 10 11  1  0  0  0  0
 11 12  2  0  0  0  0
 11 13  1  0  0  0  0
 13 14  1  0  0  0  0
 14 15  1  0  0  0  0
 15 16  1  0  0  0  0
 16 17  1  0  0  0  0
 17 18  1  0  0  0  0
 17 19  1  0  0  0  0
 16 20  1  0  0  0  0
  9 21  1  0  0  0  0
 21 22  1  0  0  0  0
 21 23  1  0  0  0  0
 21 24  1  0  0  0  0
  3 25  1  0  0  0  0
  4 26  1  0  0  0  0
  6 27  1  0  0  0  0
  7 28  1  0  0  0  0
  8 29  1  0  0  0  0
  8 30  1  0  0  0  0
  9 31  1  0  0  0  0
 10 32  1  0  0  0  0
 13 33  1  0  0  0  0
 14 34  1  0  0  0  0
 14 35  1  0  0  0  0
 15 36  1  0  0  0  0
 15 37  1  0  0  0  0
 16 38  1  0  0  0  0
 17 39  1  0  0  0  0
 20 40  1  0  0  0  0
 20 41  1  0  0  0  0
 20 42  1  0  0  0  0
 22 43  1  0  0  0  0
 23 44  1  0  0  0  0
 23 45  1  0  0  0  0
 23 46  1  0  0  0  0
 24 47  1  0  0  0  0
 24 48  1  0  0  0  0
 24 49  1  0  0  0  0
M  END
>  <result-rank>
48

>  <similarity>
0.947

>  <query-name>
LIG_A_1101_CCCC[R*]_2

>  <query-smiles>
O=C(NCCCC)[C@@H](NC(=O)C)Cc1ccc(O)cc1

>  <source>
REALspace_2019-12

>  <similarity-descriptor>
0.983;0.995;1.000;1.000;1.000;0.991;0.991;0.999;0.999;0.744;1.000;1.000;0.0;0.133

>  <similarity-descriptor-smiles>
Fc1ccccc1;C=O;N;C;C;CC(F)F;CC(F)F;CN;CN;CO;C;C;;C.C

>  <reaction-name>
s_2708

>  <reagent1-name>
16492918

>  <reagent1-smiles>
[R1*]C(=O)NCCC(C(F)F)C

>  <reagent2-name>
14595632

>  <reagent2-smiles>
[R1*]NC(C(O)(C)C)Cc1ccc(F)cc1

$$$$
s_1458____17513454____15565432
          04022015093D 1   1.00000     0.00000     0
            
 45 45  0  0  0  0            999 V2000
    0.9450    1.0000    3.1737 O   0  0  0  0  0  0  0  0  0  0  0  0
    0.3450    1.0000    2.1345 C   0  0  0  0  0  0  0  0  0  0  0  0
    1.0000    1.0000    1.0000 O   0  0  0  0  0  0  0  0  0  0  0  0
    2.4200    1.0000    1.0000 C   0  0  3  0  0  0  0  0  0  0  0  0
    2.9267   -0.2411    0.2835 C   0  0  0  0  0  0  0  0  0  0  0  0
    4.4467   -0.2411    0.2835 C   0  0  0  0  0  0  0  0  0  0  0  0
    4.9533   -1.4821   -0.4331 C   0  0  0  0  0  0  0  0  0  0  0  0
    5.7007   -1.3629   -1.4900 C   0  0  0  0  0  0  0  0  0  0  0  0
    2.9267    2.2411    0.2835 C   0  0  0  0  0  0  0  0  0  0  0  0
   -1.1750    1.0000    2.1345 C   0  0  3  0  0  0  0  0  0  0  0  0
   -1.6650    1.0000    3.5204 N   0  0  0  0  0  0  0  0  0  0  0  0
   -2.4526    2.0275    3.9685 C   0  0  0  0  0  0  0  0  0  0  0  0
   -2.7425    2.9275    3.2296 O   0  0  0  0  0  0  0  0  0  0  0  0
   -2.9593    2.0275    5.4016 C   0  0  0  0  0  0  0  0  0  0  0  0
   -1.6817   -0.2411    1.4180 C   0  0  0  0  0  0  0  0  0  0  0  0
   -3.2017   -0.2411    1.4180 C   0  0  0  0  0  0  0  0  0  0  0  0
   -3.8861    0.3644    0.3692 C   0  0  0  0  0  0  0  0  0  0  0  0
   -5.2769    0.3662    0.3646 C   0  0  0  0  0  0  0  0  0  0  0  0
   -5.9666   -0.2391    1.4104 C   0  0  0  0  0  0  0  0  0  0  0  0
   -7.3164   -0.2393    1.4101 O   0  0  0  0  0  0  0  0  0  0  0  0
   -5.2870   -0.8457    2.4618 C   0  0  0  0  0  0  0  0  0  0  0  0
   -3.8962   -0.8449    2.4611 C   0  0  0  0  0  0  0  0  0  0  0  0
    2.7533    1.0000    1.9428 H   0  0  0  0  0  0  0  0  0  0  0  0
    2.5933   -0.2411   -0.6593 H   0  0  0  0  0  0  0  0  0  0  0  0
    2.5933   -1.0576    0.7549 H   0  0  0  0  0  0  0  0  0  0  0  0
    4.7800    0.5754   -0.1879 H   0  0  0  0  0  0  0  0  0  0  0  0
    4.7800   -0.2411    1.2263 H   0  0  0  0  0  0  0  0  0  0  0  0
    4.7118   -2.3904   -0.0914 H   0  0  0  0  0  0  0  0  0  0  0  0
    6.0341   -2.1794   -1.9614 H   0  0  0  0  0  0  0  0  0  0  0  0
    5.9423   -0.4546   -1.8317 H   0  0  0  0  0  0  0  0  0  0  0  0
    3.9267    2.2411    0.2835 H   0  0  0  0  0  0  0  0  0  0  0  0
    2.5933    2.2411   -0.6593 H   0  0  0  0  0  0  0  0  0  0  0  0
    2.5933    3.0576    0.7549 H   0  0  0  0  0  0  0  0  0  0  0  0
   -1.5083    1.8165    1.6631 H   0  0  0  0  0  0  0  0  0  0  0  0
   -1.4234    0.2500    4.1362 H   0  0  0  0  0  0  0  0  0  0  0  0
   -2.6260    1.2110    5.8730 H   0  0  0  0  0  0  0  0  0  0  0  0
   -2.6260    2.8440    5.8730 H   0  0  0  0  0  0  0  0  0  0  0  0
   -3.9593    2.0275    5.4016 H   0  0  0  0  0  0  0  0  0  0  0  0
   -1.3483   -0.2411    0.4751 H   0  0  0  0  0  0  0  0  0  0  0  0
   -1.3483   -1.0576    1.8894 H   0  0  0  0  0  0  0  0  0  0  0  0
   -3.3806    0.7963   -0.3777 H   0  0  0  0  0  0  0  0  0  0  0  0
   -5.7776    0.7993   -0.3849 H   0  0  0  0  0  0  0  0  0  0  0  0
   -7.8165   -0.6731    2.1596 H   0  0  0  0  0  0  0  0  0  0  0  0
   -5.7924   -1.2771    3.2091 H   0  0  0  0  0  0  0  0  0  0  0  0
   -3.3955   -1.2783    3.2104 H   0  0  0  0  0  0  0  0  0  0  0  0
  1  2  2  0  0  0  0
  2  3  1  0  0  0  0
  3  4  1  0  0  0  0
  4  5  1  0  0  0  0
  5  6  1  0  0  0  0
  6  7  1  0  0  0  0
  7  8  2  0  0  0  0
  4  9  1  0  0  0  0
  2 10  1  0  0  0  0
 10 11  1  0  0  0  0
 11 12  1  0  0  0  0
 12 13  2  0  0  0  0
 12 14  1  0  0  0  0
 10 15  1  0  0  0  0
 15 16  1  0  0  0  0
 16 17  1  0  0  0  0
 17 18  2  0  0  0  0
 18 19  1  0  0  0  0
 19 20  1  0  0  0  0
 19 21  2  0  0  0  0
 21 22  1  0  0  0  0
 22 16  2  0  0  0  0
  4 23  1  0  0  0  0
  5 24  1  0  0  0  0
  5 25  1  0  0  0  0
  6 26  1  0  0  0  0
  6 27  1  0  0  0  0
  7 28  1  0  0  0  0
  8 29  1  0  0  0  0
  8 30  1  0  0  0  0
  9 31  1  0  0  0  0
  9 32  1  0  0  0  0
  9 33  1  0  0  0  0
 10 34  1  0  0  0  0
 11 35  1  0  0  0  0
 14 36  1  0  0  0  0
 14 37  1  0  0  0  0
 14 38  1  0  0  0  0
 15 39  1  0  0  0  0
 15 40  1  0  0  0  0
 17 41  1  0  0  0  0
 18 42  1  0  0  0  0
 20 43  1  0  0  0  0
 21 44  1  0  0  0  0
 22 45  1  0  0  0  0
M  END
>  <result-rank>
49

>  <similarity>
0.947

>  <query-name>
LIG_A_1101_CCCC[R*]_2

>  <query-smiles>
O=C(NCCCC)[C@@H](NC(=O)C)Cc1ccc(O)cc1

>  <source>
REALspace_2019-12

>  <similarity-descriptor>
1.000;0.998;0.283;0.998;0.998;1.000;0.949;1.000;1.000;1.000;1.000;1.000;1.000;0.133

>  <similarity-descriptor-smiles>
c1ccccc1;O=C;O;CC;CC;C;C;C;N;C=O;C;C;O;C.C

>  <reaction-name>
s_1458

>  <reagent1-name>
17513454

>  <reagent1-smiles>
[R1*]OC(=O)C(NC(=O)C)Cc1ccc(O)cc1

>  <reagent2-name>
15565432

>  <reagent2-smiles>
[R1*]C(CCC=C)C

$$$$
s_22____4712096____16887748
          04022015093D 1   1.00000     0.00000     0
            
 53 53  0  0  0  0            999 V2000
   -3.4717   -0.4113    1.9376 S   0  0  0  0  0  0  0  0  0  0  0  0
   -3.7548   -2.1719    1.6272 C   0  0  0  0  0  0  0  0  0  0  0  0
   -5.2495   -2.4439    1.5792 C   0  0  0  0  0  0  0  0  0  0  0  0
   -5.4576   -3.7376    1.3511 F   0  0  0  0  0  0  0  0  0  0  0  0
   -5.7994   -2.1047    2.7417 F   0  0  0  0  0  0  0  0  0  0  0  0
   -1.6617   -0.4113    1.9376 C   0  0  0  0  0  0  0  0  0  0  0  0
   -1.1550    1.0000    2.1865 C   0  0  0  0  0  0  0  0  0  0  0  0
    0.3150    1.0000    2.1865 N   0  0  0  0  0  0  0  0  0  0  0  0
    1.0000    1.0000    1.0000 C   0  0  0  0  0  0  0  0  0  0  0  0
    0.4000    1.0000   -0.0392 O   0  0  0  0  0  0  0  0  0  0  0  0
    2.5200    1.0000    1.0000 C   0  0  3  0  0  0  0  0  0  0  0  0
    3.0100    0.1091    2.0617 N   0  0  0  0  0  0  0  0  0  0  0  0
    3.7976    0.6082    3.0654 C   0  0  0  0  0  0  0  0  0  0  0  0
    4.0875    1.7726    3.0779 O   0  0  0  0  0  0  0  0  0  0  0  0
    4.3043   -0.3129    4.1632 C   0  0  0  0  0  0  0  0  0  0  0  0
    5.0932    0.4318    5.0794 O   0  0  0  0  0  0  0  0  0  0  0  0
    6.4493    0.4157    4.6584 C   0  0  0  0  0  0  0  0  0  0  0  0
    7.2937    1.2129    5.6392 C   0  0  0  0  0  0  0  0  0  0  0  0
    6.9479   -1.0194    4.6104 C   0  0  0  0  0  0  0  0  0  0  0  0
    3.0267    0.5099   -0.3466 C   0  0  0  0  0  0  0  0  0  0  0  0
    4.5467    0.5099   -0.3466 C   0  0  0  0  0  0  0  0  0  0  0  0
    5.2311   -0.6281    0.0675 C   0  0  0  0  0  0  0  0  0  0  0  0
    6.6219   -0.6330    0.0685 C   0  0  0  0  0  0  0  0  0  0  0  0
    7.3116    0.5021   -0.3460 C   0  0  0  0  0  0  0  0  0  0  0  0
    8.6614    0.5018   -0.3463 O   0  0  0  0  0  0  0  0  0  0  0  0
    6.6320    1.6429   -0.7608 C   0  0  0  0  0  0  0  0  0  0  0  0
    5.2412    1.6420   -0.7602 C   0  0  0  0  0  0  0  0  0  0  0  0
   -3.3414   -2.7105    2.3613 H   0  0  0  0  0  0  0  0  0  0  0  0
   -3.3414   -2.4269    0.7531 H   0  0  0  0  0  0  0  0  0  0  0  0
   -5.6630   -1.9053    0.8451 H   0  0  0  0  0  0  0  0  0  0  0  0
   -1.3283   -0.7338    1.0517 H   0  0  0  0  0  0  0  0  0  0  0  0
   -1.3283   -1.0173    2.6598 H   0  0  0  0  0  0  0  0  0  0  0  0
   -1.4883    1.6060    1.4642 H   0  0  0  0  0  0  0  0  0  0  0  0
   -1.4883    1.3225    3.0724 H   0  0  0  0  0  0  0  0  0  0  0  0
    0.8150    1.0000    3.0525 H   0  0  0  0  0  0  0  0  0  0  0  0
    2.8533    1.9285    1.1637 H   0  0  0  0  0  0  0  0  0  0  0  0
    2.7684   -0.8612    2.0513 H   0  0  0  0  0  0  0  0  0  0  0  0
    3.5265   -0.7169    4.6447 H   0  0  0  0  0  0  0  0  0  0  0  0
    4.8599   -1.0394    3.7587 H   0  0  0  0  0  0  0  0  0  0  0  0
    6.5207    0.8240    3.7484 H   0  0  0  0  0  0  0  0  0  0  0  0
    8.2487    1.2015    5.3427 H   0  0  0  0  0  0  0  0  0  0  0  0
    6.9657    2.1570    5.6708 H   0  0  0  0  0  0  0  0  0  0  0  0
    7.2223    0.8046    6.5492 H   0  0  0  0  0  0  0  0  0  0  0  0
    7.9028   -1.0307    4.3140 H   0  0  0  0  0  0  0  0  0  0  0  0
    6.8764   -1.4277    5.5205 H   0  0  0  0  0  0  0  0  0  0  0  0
    6.3923   -1.5439    3.9652 H   0  0  0  0  0  0  0  0  0  0  0  0
    2.6933   -0.4186   -0.5104 H   0  0  0  0  0  0  0  0  0  0  0  0
    2.6933    1.1159   -1.0689 H   0  0  0  0  0  0  0  0  0  0  0  0
    4.7256   -1.4387    0.3632 H   0  0  0  0  0  0  0  0  0  0  0  0
    7.1226   -1.4463    0.3649 H   0  0  0  0  0  0  0  0  0  0  0  0
    9.1615    1.3153   -0.6433 H   0  0  0  0  0  0  0  0  0  0  0  0
    7.1374    2.4537   -1.0559 H   0  0  0  0  0  0  0  0  0  0  0  0
    4.7405    2.4552   -1.0569 H   0  0  0  0  0  0  0  0  0  0  0  0
  1  2  1  0  0  0  0
  2  3  1  0  0  0  0
  3  4  1  0  0  0  0
  3  5  1  0  0  0  0
  1  6  1  0  0  0  0
  6  7  1  0  0  0  0
  7  8  1  0  0  0  0
  8  9  1  0  0  0  0
  9 10  2  0  0  0  0
  9 11  1  0  0  0  0
 11 12  1  0  0  0  0
 12 13  1  0  0  0  0
 13 14  2  0  0  0  0
 13 15  1  0  0  0  0
 15 16  1  0  0  0  0
 16 17  1  0  0  0  0
 17 18  1  0  0  0  0
 17 19  1  0  0  0  0
 11 20  1  0  0  0  0
 20 21  1  0  0  0  0
 21 22  1  0  0  0  0
 22 23  2  0  0  0  0
 23 24  1  0  0  0  0
 24 25  1  0  0  0  0
 24 26  2  0  0  0  0
 26 27  1  0  0  0  0
 27 21  2  0  0  0  0
  2 28  1  0  0  0  0
  2 29  1  0  0  0  0
  3 30  1  0  0  0  0
  6 31  1  0  0  0  0
  6 32  1  0  0  0  0
  7 33  1  0  0  0  0
  7 34  1  0  0  0  0
  8 35  1  0  0  0  0
 11 36  1  0  0  0  0
 12 37  1  0  0  0  0
 15 38  1  0  0  0  0
 15 39  1  0  0  0  0
 17 40  1  0  0  0  0
 18 41  1  0  0  0  0
 18 42  1  0  0  0  0
 18 43  1  0  0  0  0
 19 44  1  0  0  0  0
 19 45  1  0  0  0  0
 19 46  1  0  0  0  0
 20 47  1  0  0  0  0
 20 48  1  0  0  0  0
 22 49  1  0  0  0  0
 23 50  1  0  0  0  0
 25 51  1  0  0  0  0
 26 52  1  0  0  0  0
 27 53  1  0  0  0  0
M  END
>  <result-rank>
50

>  <similarity>
0.947

>  <query-name>
LIG_A_1101_CCCC[R*]_2

>  <query-smiles>
O=C(NCCCC)[C@@H](NC(=O)C)Cc1ccc(O)cc1

>  <source>
REALspace_2019-12

>  <similarity-descriptor>
1.000;1.000;1.000;0.807;0.807;0.985;0.985;1.000;1.000;1.000;0.956;1.000;1.000;0.222

>  <similarity-descriptor-smiles>
c1ccccc1;C=O;N;SCC;SCC;CC(F)F;CC(F)F;C;N;C=O;C;C;O;O.C.C.C

>  <reaction-name>
s_22

>  <reagent1-name>
4712096

>  <reagent1-smiles>
[R1*]NCCSCC(F)F

>  <reagent2-name>
16887748

>  <reagent2-smiles>
[R1*]C(=O)C(NC(=O)COC(C)C)Cc1ccc(O)cc1

$$$$
s_22____11401830____3192126
          04022015093D 1   1.00000     0.00000     0
            
 47 49  0  0  0  0            999 V2000
    0.0511    3.2085   -0.5626 O   0  0  0  0  0  0  0  0  0  0  0  0
   -0.4491    2.9516    0.4975 C   0  0  0  0  0  0  0  0  0  0  0  0
   -1.0408    3.9436    1.2341 N   0  0  0  0  0  0  0  0  0  0  0  0
   -1.0631    5.3247    0.7252 C   0  0  3  0  0  0  0  0  0  0  0  0
   -2.4438    5.8792    0.5376 C   0  0  0  0  0  0  0  0  0  0  0  0
   -1.6331    6.2769    1.7360 C   0  0  0  0  0  0  0  0  0  0  0  0
   -3.2693    6.4228   -0.5972 C   0  0  0  0  0  0  0  0  0  0  0  0
   -3.8581    5.4214    0.3485 C   0  0  0  0  0  0  0  0  0  0  0  0
   -0.4261    1.5255    1.0230 C   0  0  0  0  0  0  0  0  0  0  0  0
    1.0000    1.0000    1.0000 C   0  0  3  0  0  0  0  0  0  0  0  0
    1.0222   -0.3792    1.5082 N   0  0  0  0  0  0  0  0  0  0  0  0
    1.4740   -1.3964    0.7094 C   0  0  0  0  0  0  0  0  0  0  0  0
    1.8516   -1.1615   -0.4052 O   0  0  0  0  0  0  0  0  0  0  0  0
    1.4970   -2.8224    1.2349 C   0  0  0  0  0  0  0  0  0  0  0  0
    1.8778    1.8778    1.8778 C   0  0  0  0  0  0  0  0  0  0  0  0
    2.7618    2.7809    1.2955 C   0  0  0  0  0  0  0  0  0  0  0  0
    2.8531    2.8901   -0.0473 O   0  0  0  0  0  0  0  0  0  0  0  0
    3.8659    3.6994   -0.6266 C   0  0  0  0  0  0  0  0  0  0  0  0
    3.7491    3.6504   -2.1413 C   0  0  0  0  0  0  0  0  0  0  0  0
    3.5653    3.5841    2.0987 C   0  0  0  0  0  0  0  0  0  0  0  0
    3.4842    3.4844    3.4843 C   0  0  0  0  0  0  0  0  0  0  0  0
    2.5997    2.5817    4.0662 C   0  0  0  0  0  0  0  0  0  0  0  0
    1.7963    1.7790    3.2628 C   0  0  0  0  0  0  0  0  0  0  0  0
   -1.4576    3.7295    2.1175 H   0  0  0  0  0  0  0  0  0  0  0  0
   -0.3269    5.6349    0.1237 H   0  0  0  0  0  0  0  0  0  0  0  0
   -1.8891    5.9473    2.6447 H   0  0  0  0  0  0  0  0  0  0  0  0
   -1.2701    7.2058    1.8083 H   0  0  0  0  0  0  0  0  0  0  0  0
   -3.0604    6.1591   -1.5390 H   0  0  0  0  0  0  0  0  0  0  0  0
   -3.5817    7.3726   -0.5785 H   0  0  0  0  0  0  0  0  0  0  0  0
   -4.5650    5.7029    0.9974 H   0  0  0  0  0  0  0  0  0  0  0  0
   -4.0438    4.4894    0.0370 H   0  0  0  0  0  0  0  0  0  0  0  0
   -1.0034    0.9482    0.4456 H   0  0  0  0  0  0  0  0  0  0  0  0
   -0.7718    1.5104    1.9612 H   0  0  0  0  0  0  0  0  0  0  0  0
    1.3457    1.0151    0.0618 H   0  0  0  0  0  0  0  0  0  0  0  0
    0.7076   -0.5749    2.4370 H   0  0  0  0  0  0  0  0  0  0  0  0
    1.1513   -2.8376    2.1731 H   0  0  0  0  0  0  0  0  0  0  0  0
    0.9197   -3.3998    0.6576 H   0  0  0  0  0  0  0  0  0  0  0  0
    2.4352   -3.1682    1.2198 H   0  0  0  0  0  0  0  0  0  0  0  0
    4.7642    3.3579   -0.3503 H   0  0  0  0  0  0  0  0  0  0  0  0
    3.7576    4.6432   -0.3143 H   0  0  0  0  0  0  0  0  0  0  0  0
    4.4623    4.2204   -2.5493 H   0  0  0  0  0  0  0  0  0  0  0  0
    3.8574    2.7066   -2.4536 H   0  0  0  0  0  0  0  0  0  0  0  0
    2.8508    3.9919   -2.4176 H   0  0  0  0  0  0  0  0  0  0  0  0
    4.2009    4.2329    1.6804 H   0  0  0  0  0  0  0  0  0  0  0  0
    4.0616    4.0616    4.0618 H   0  0  0  0  0  0  0  0  0  0  0  0
    2.5414    2.5100    5.0619 H   0  0  0  0  0  0  0  0  0  0  0  0
    1.1600    1.1308    3.6812 H   0  0  0  0  0  0  0  0  0  0  0  0
  1  2  2  0  0  0  0
  2  3  1  0  0  0  0
  3  4  1  0  0  0  0
  4  5  1  0  0  0  0
  5  6  1  0  0  0  0
  6  4  1  0  0  0  0
  5  7  1  0  0  0  0
  7  8  1  0  0  0  0
  8  5  1  0  0  0  0
  2  9  1  0  0  0  0
  9 10  1  0  0  0  0
 10 11  1  0  0  0  0
 11 12  1  0  0  0  0
 12 13  2  0  0  0  0
 12 14  1  0  0  0  0
 10 15  1  0  0  0  0
 15 16  1  0  0  0  0
 16 17  1  0  0  0  0
 17 18  1  0  0  0  0
 18 19  1  0  0  0  0
 16 20  2  0  0  0  0
 20 21  1  0  0  0  0
 21 22  2  0  0  0  0
 22 23  1  0  0  0  0
 23 15  2  0  0  0  0
  3 24  1  0  0  0  0
  4 25  1  0  0  0  0
  6 26  1  0  0  0  0
  6 27  1  0  0  0  0
  7 28  1  0  0  0  0
  7 29  1  0  0  0  0
  8 30  1  0  0  0  0
  8 31  1  0  0  0  0
  9 32  1  0  0  0  0
  9 33  1  0  0  0  0
 10 34  1  0  0  0  0
 11 35  1  0  0  0  0
 14 36  1  0  0  0  0
 14 37  1  0  0  0  0
 14 38  1  0  0  0  0
 18 39  1  0  0  0  0
 18 40  1  0  0  0  0
 19 41  1  0  0  0  0
 19 42  1  0  0  0  0
 19 43  1  0  0  0  0
 20 44  1  0  0  0  0
 21 45  1  0  0  0  0
 22 46  1  0  0  0  0
 23 47  1  0  0  0  0
M  END
>  <result-rank>
51

>  <similarity>
0.947

>  <query-name>
LIG_A_1101_CCCC[R*]_2

>  <query-smiles>
O=C(NCCCC)[C@@H](NC(=O)C)Cc1ccc(O)cc1

>  <source>
REALspace_2019-12

>  <similarity-descriptor>
1.000;1.000;1.000;0.887;0.887;0.888;0.888;1.000;1.000;1.000;1.000;1.000;0.704;0.154

>  <similarity-descriptor-smiles>
c1ccccc1;O=C;N;C1CC1;C1CC1;C1CC1;C1CC1;CC;N;C=O;C;CC;O;C.C

>  <reaction-name>
s_22

>  <reagent1-name>
11401830

>  <reagent1-smiles>
[R1*]NC1C2(C1)CC2

>  <reagent2-name>
3192126

>  <reagent2-smiles>
[R1*]C(=O)CC(NC(=O)C)c1c(OCC)cccc1

$$$$
s_276530____14277870____14278036
          04022015093D 1   1.00000     0.00000     0
            
 37 38  0  0  0  0            999 V2000
    3.2844    3.7799    2.7958 O   0  0  0  0  0  0  0  0  0  0  0  0
    2.7521    2.6833    2.7324 C   0  0  0  0  0  0  0  0  0  0  0  0
    3.1800    1.7948    1.7374 N   0  0  0  0  0  0  0  0  0  0  0  0
    2.5741    0.4599    1.6108 C   0  0  3  0  0  0  0  0  0  0  0  0
    1.1325    0.4462    2.0963 C   0  0  0  0  0  0  0  0  0  0  0  0
    0.3145   -0.3283    1.6263 O   0  0  0  0  0  0  0  0  0  0  0  0
    0.7125    1.3291    3.0998 N   0  0  0  0  0  0  0  0  0  0  0  0
    1.6510    2.2870    3.7049 C   0  0  3  0  0  0  0  0  0  0  0  0
    0.8656    3.5231    4.1133 C   0  0  0  0  0  0  0  0  0  0  0  0
   -0.2063    3.1332    5.1187 C   0  0  0  0  0  0  0  0  0  0  0  0
    0.0787    3.1494    6.4806 C   0  0  0  0  0  0  0  0  0  0  0  0
    1.3018    3.5082    6.9262 O   0  0  0  0  0  0  0  0  0  0  0  0
   -0.9020    2.7924    7.4007 C   0  0  0  0  0  0  0  0  0  0  0  0
   -2.1678    2.4198    6.9588 C   0  0  0  0  0  0  0  0  0  0  0  0
   -2.4525    2.4043    5.5969 C   0  0  0  0  0  0  0  0  0  0  0  0
   -1.4718    2.7615    4.6772 C   0  0  0  0  0  0  0  0  0  0  0  0
    2.6210    0.0516    0.1471 C   0  0  0  0  0  0  0  0  0  0  0  0
    4.0661    0.0150   -0.3227 C   0  0  0  0  0  0  0  0  0  0  0  0
    4.1129   -0.3931   -1.7861 C   0  0  0  0  0  0  0  0  0  0  0  0
    3.9051    2.0708    1.1064 H   0  0  0  0  0  0  0  0  0  0  0  0
    3.1066   -0.1931    2.1494 H   0  0  0  0  0  0  0  0  0  0  0  0
   -0.2382    1.3078    3.4091 H   0  0  0  0  0  0  0  0  0  0  0  0
    2.0627    1.8754    4.5179 H   0  0  0  0  0  0  0  0  0  0  0  0
    1.4850    4.1896    4.5280 H   0  0  0  0  0  0  0  0  0  0  0  0
    0.4345    3.9259    3.3059 H   0  0  0  0  0  0  0  0  0  0  0  0
    1.4940    3.5158    7.9076 H   0  0  0  0  0  0  0  0  0  0  0  0
   -0.6973    2.8036    8.3794 H   0  0  0  0  0  0  0  0  0  0  0  0
   -2.8728    2.1631    7.6199 H   0  0  0  0  0  0  0  0  0  0  0  0
   -3.3620    2.1364    5.2793 H   0  0  0  0  0  0  0  0  0  0  0  0
   -1.6768    2.7512    3.6985 H   0  0  0  0  0  0  0  0  0  0  0  0
    2.1093    0.7139   -0.4002 H   0  0  0  0  0  0  0  0  0  0  0  0
    2.2128   -0.8550    0.0407 H   0  0  0  0  0  0  0  0  0  0  0  0
    4.5778   -0.6473    0.2246 H   0  0  0  0  0  0  0  0  0  0  0  0
    4.4743    0.9217   -0.2163 H   0  0  0  0  0  0  0  0  0  0  0  0
    5.0637   -0.4172   -2.0952 H   0  0  0  0  0  0  0  0  0  0  0  0
    3.7048   -1.2998   -1.8925 H   0  0  0  0  0  0  0  0  0  0  0  0
    3.6012    0.2691   -2.3334 H   0  0  0  0  0  0  0  0  0  0  0  0
  1  2  2  0  0  0  0
  2  3  1  0  0  0  0
  3  4  1  0  0  0  0
  4  5  1  0  0  0  0
  5  6  2  0  0  0  0
  5  7  1  0  0  0  0
  7  8  1  0  0  0  0
  8  2  1  0  0  0  0
  8  9  1  0  0  0  0
  9 10  1  0  0  0  0
 10 11  1  0  0  0  0
 11 12  1  0  0  0  0
 11 13  2  0  0  0  0
 13 14  1  0  0  0  0
 14 15  2  0  0  0  0
 15 16  1  0  0  0  0
 16 10  2  0  0  0  0
  4 17  1  0  0  0  0
 17 18  1  0  0  0  0
 18 19  1  0  0  0  0
  3 20  1  0  0  0  0
  4 21  1  0  0  0  0
  7 22  1  0  0  0  0
  8 23  1  0  0  0  0
  9 24  1  0  0  0  0
  9 25  1  0  0  0  0
 12 26  1  0  0  0  0
 13 27  1  0  0  0  0
 14 28  1  0  0  0  0
 15 29  1  0  0  0  0
 16 30  1  0  0  0  0
 17 31  1  0  0  0  0
 17 32  1  0  0  0  0
 18 33  1  0  0  0  0
 18 34  1  0  0  0  0
 19 35  1  0  0  0  0
 19 36  1  0  0  0  0
 19 37  1  0  0  0  0
M  END
>  <result-rank>
52

>  <similarity>
0.946

>  <query-name>
LIG_A_1101_CCCC[R*]_2

>  <query-smiles>
O=C(NCCCC)[C@@H](NC(=O)C)Cc1ccc(O)cc1

>  <source>
REALspace_2019-12

>  <similarity-descriptor>
1.000;0.891;0.891;0.891;1.000;1.000;1.000;0.891;0.891;0.891;0.0;1.000;1.000;0.0

>  <similarity-descriptor-smiles>
c1ccccc1;O=C1CNC(CN1)=O;O=C1CNC(CN1)=O;O=C1CNC(CN1)=O;C;C;C;O=C1CNC(CN1)=O;O=C1CNC(CN1)=O;O=C1CNC(CN1)=O;;C;O;

>  <reaction-name>
s_276530

>  <reagent1-name>
14277870

>  <reagent1-smiles>
[R1*]NC(C([R2*])=O)Cc1c(O)cccc1

>  <reagent2-name>
14278036

>  <reagent2-smiles>
[R2*]NC(C([R1*])=O)CCC

$$$$
s_22____6080378____17513450
          04022015093D 1   1.00000     0.00000     0
            
 47 48  0  0  0  0            999 V2000
   -3.7712   -1.7997    3.3122 S   0  0  0  0  0  0  0  0  0  0  0  0
   -3.1190   -0.2351    2.6774 C   0  0  3  0  0  0  0  0  0  0  0  0
   -1.6949   -0.4106    2.1865 C   0  0  0  0  0  0  0  0  0  0  0  0
   -1.1547    1.0000    2.1865 C   0  0  3  0  0  0  0  0  0  0  0  0
    0.3150    1.0000    2.1865 N   0  0  0  0  0  0  0  0  0  0  0  0
    1.0000    1.0000    1.0000 C   0  0  0  0  0  0  0  0  0  0  0  0
    0.4000    1.0000   -0.0392 O   0  0  0  0  0  0  0  0  0  0  0  0
    2.5200    1.0000    1.0000 C   0  0  3  0  0  0  0  0  0  0  0  0
    3.0100    1.6930   -0.2002 N   0  0  0  0  0  0  0  0  0  0  0  0
    3.2383    3.0434   -0.1663 C   0  0  0  0  0  0  0  0  0  0  0  0
    3.0383    3.6605    0.8432 O   0  0  0  0  0  0  0  0  0  0  0  0
    3.7450    3.7599   -1.4074 C   0  0  0  0  0  0  0  0  0  0  0  0
    3.0267   -0.4331    1.0000 C   0  0  0  0  0  0  0  0  0  0  0  0
    4.5467   -0.4331    1.0000 C   0  0  0  0  0  0  0  0  0  0  0  0
    5.2311   -0.4331    2.2110 C   0  0  0  0  0  0  0  0  0  0  0  0
    6.6219   -0.4338    2.2159 C   0  0  0  0  0  0  0  0  0  0  0  0
    7.3116   -0.4351    1.0075 C   0  0  0  0  0  0  0  0  0  0  0  0
    8.7316   -0.4355    1.0077 O   0  0  0  0  0  0  0  0  0  0  0  0
    6.6320   -0.4347   -0.2063 C   0  0  0  0  0  0  0  0  0  0  0  0
    5.2412   -0.4344   -0.2053 C   0  0  0  0  0  0  0  0  0  0  0  0
   -1.6801    1.5480    3.5021 C   0  0  0  0  0  0  0  0  0  0  0  0
   -2.9515    0.7723    3.8045 C   0  0  0  0  0  0  0  0  0  0  0  0
   -5.4245   -1.2426    3.7940 C   0  0  0  0  0  0  0  0  0  0  0  0
   -3.7050    0.1304    1.9541 H   0  0  0  0  0  0  0  0  0  0  0  0
   -1.6782   -0.8011    1.2660 H   0  0  0  0  0  0  0  0  0  0  0  0
   -1.1713   -0.9953    2.8061 H   0  0  0  0  0  0  0  0  0  0  0  0
   -1.5133    1.5213    1.4121 H   0  0  0  0  0  0  0  0  0  0  0  0
    0.8150    1.0000    3.0525 H   0  0  0  0  0  0  0  0  0  0  0  0
    2.8533    1.4714    1.8165 H   0  0  0  0  0  0  0  0  0  0  0  0
    3.1767    1.1787   -1.0415 H   0  0  0  0  0  0  0  0  0  0  0  0
    3.8561    3.1005   -2.1510 H   0  0  0  0  0  0  0  0  0  0  0  0
    3.0863    4.4614   -1.6796 H   0  0  0  0  0  0  0  0  0  0  0  0
    4.6259    4.1892   -1.2082 H   0  0  0  0  0  0  0  0  0  0  0  0
    2.6933   -0.9045    1.8165 H   0  0  0  0  0  0  0  0  0  0  0  0
    2.6933   -0.9045    0.1835 H   0  0  0  0  0  0  0  0  0  0  0  0
    4.7256   -0.4325    3.0738 H   0  0  0  0  0  0  0  0  0  0  0  0
    7.1226   -0.4335    3.0815 H   0  0  0  0  0  0  0  0  0  0  0  0
    9.2317   -0.4364    0.1417 H   0  0  0  0  0  0  0  0  0  0  0  0
    7.1374   -0.4347   -1.0692 H   0  0  0  0  0  0  0  0  0  0  0  0
    4.7405   -0.4351   -1.0710 H   0  0  0  0  0  0  0  0  0  0  0  0
   -1.8811    2.5238    3.4160 H   0  0  0  0  0  0  0  0  0  0  0  0
   -1.0076    1.4091    4.2291 H   0  0  0  0  0  0  0  0  0  0  0  0
   -2.8675    0.2991    4.6815 H   0  0  0  0  0  0  0  0  0  0  0  0
   -3.7358    1.3919    3.8339 H   0  0  0  0  0  0  0  0  0  0  0  0
   -5.9365   -2.0111    4.1778 H   0  0  0  0  0  0  0  0  0  0  0  0
   -5.3458   -0.5189    4.4796 H   0  0  0  0  0  0  0  0  0  0  0  0
   -5.9047   -0.8900    2.9908 H   0  0  0  0  0  0  0  0  0  0  0  0
  1  2  1  0  0  0  0
  2  3  1  0  0  0  0
  3  4  1  0  0  0  0
  4  5  1  0  0  0  0
  5  6  1  0  0  0  0
  6  7  2  0  0  0  0
  6  8  1  0  0  0  0
  8  9  1  0  0  0  0
  9 10  1  0  0  0  0
 10 11  2  0  0  0  0
 10 12  1  0  0  0  0
  8 13  1  0  0  0  0
 13 14  1  0  0  0  0
 14 15  1  0  0  0  0
 15 16  2  0  0  0  0
 16 17  1  0  0  0  0
 17 18  1  0  0  0  0
 17 19  2  0  0  0  0
 19 20  1  0  0  0  0
 20 14  2  0  0  0  0
  4 21  1  0  0  0  0
 21 22  1  0  0  0  0
 22  2  1  0  0  0  0
  1 23  1  0  0  0  0
  2 24  1  0  0  0  0
  3 25  1  0  0  0  0
  3 26  1  0  0  0  0
  4 27  1  0  0  0  0
  5 28  1  0  0  0  0
  8 29  1  0  0  0  0
  9 30  1  0  0  0  0
 12 31  1  0  0  0  0
 12 32  1  0  0  0  0
 12 33  1  0  0  0  0
 13 34  1  0  0  0  0
 13 35  1  0  0  0  0
 15 36  1  0  0  0  0
 16 37  1  0  0  0  0
 18 38  1  0  0  0  0
 19 39  1  0  0  0  0
 20 40  1  0  0  0  0
 21 41  1  0  0  0  0
 21 42  1  0  0  0  0
 22 43  1  0  0  0  0
 22 44  1  0  0  0  0
 23 45  1  0  0  0  0
 23 46  1  0  0  0  0
 23 47  1  0  0  0  0
M  END
>  <result-rank>
53

>  <similarity>
0.946

>  <query-name>
LIG_A_1101_CCCC[R*]_2

>  <query-smiles>
O=C(NCCCC)[C@@H](NC(=O)C)Cc1ccc(O)cc1

>  <source>
REALspace_2019-12

>  <similarity-descriptor>
1.000;1.000;1.000;0.819;0.819;0.819;0.819;1.000;1.000;1.000;1.000;1.000;1.000;0.167

>  <similarity-descriptor-smiles>
c1ccccc1;C=O;N;C1CCCC1;C1CCCC1;C1CCCC1;C1CCCC1;C;N;C=O;C;C;O;S.C

>  <reaction-name>
s_22

>  <reagent1-name>
6080378

>  <reagent1-smiles>
[R1*]NC1CC(SC)CC1

>  <reagent2-name>
17513450

>  <reagent2-smiles>
[R1*]C(=O)C(NC(=O)C)Cc1ccc(O)cc1

$$$$
s_188690b____7326520____17513482
          04022015093D 1   1.00000     0.00000     0
            
 41 41  0  0  0  0            999 V2000
   -1.8633   -1.0035    3.2343 O   0  5  0  0  0  0  0  0  0  0  0  0
   -1.6617   -0.4331    2.1865 C   0  0  0  0  0  0  0  0  0  0  0  0
   -1.8700   -1.0223    1.1039 O   0  0  0  0  0  0  0  0  0  0  0  0
   -1.1550    1.0000    2.1865 C   0  0  0  0  0  0  0  0  0  0  0  0
    0.3150    1.0000    2.1865 N   0  0  0  0  0  0  0  0  0  0  0  0
    1.0000    1.0000    1.0000 C   0  0  0  0  0  0  0  0  0  0  0  0
    0.4000    1.0000   -0.0392 O   0  0  0  0  0  0  0  0  0  0  0  0
    2.5200    1.0000    1.0000 C   0  0  3  0  0  0  0  0  0  0  0  0
    3.0100    1.6930   -0.2002 N   0  0  0  0  0  0  0  0  0  0  0  0
    3.2383    3.0434   -0.1663 C   0  0  0  0  0  0  0  0  0  0  0  0
    3.0383    3.6605    0.8432 O   0  0  0  0  0  0  0  0  0  0  0  0
    3.7450    3.7599   -1.4074 C   0  0  0  0  0  0  0  0  0  0  0  0
    3.0267   -0.4331    1.0000 C   0  0  0  0  0  0  0  0  0  0  0  0
    4.5467   -0.4331    1.0000 C   0  0  0  0  0  0  0  0  0  0  0  0
    5.2311   -0.4331    2.2110 C   0  0  0  0  0  0  0  0  0  0  0  0
    6.6219   -0.4338    2.2159 C   0  0  0  0  0  0  0  0  0  0  0  0
    7.3116   -0.4351    1.0075 C   0  0  0  0  0  0  0  0  0  0  0  0
    8.7316   -0.4355    1.0077 O   0  0  0  0  0  0  0  0  0  0  0  0
    6.6320   -0.4347   -0.2063 C   0  0  0  0  0  0  0  0  0  0  0  0
    5.2412   -0.4344   -0.2053 C   0  0  0  0  0  0  0  0  0  0  0  0
    1.0500    1.0000    3.4595 C   0  0  0  0  0  0  0  0  0  0  0  0
    1.3033    2.4331    3.8983 C   0  0  0  0  0  0  0  0  0  0  0  0
   -1.4883    1.4714    1.3700 H   0  0  0  0  0  0  0  0  0  0  0  0
   -1.4883    1.4714    3.0030 H   0  0  0  0  0  0  0  0  0  0  0  0
    2.8533    1.4714    1.8165 H   0  0  0  0  0  0  0  0  0  0  0  0
    3.1767    1.1787   -1.0415 H   0  0  0  0  0  0  0  0  0  0  0  0
    3.8561    3.1005   -2.1510 H   0  0  0  0  0  0  0  0  0  0  0  0
    3.0863    4.4614   -1.6796 H   0  0  0  0  0  0  0  0  0  0  0  0
    4.6259    4.1892   -1.2082 H   0  0  0  0  0  0  0  0  0  0  0  0
    2.6933   -0.9045    1.8165 H   0  0  0  0  0  0  0  0  0  0  0  0
    2.6933   -0.9045    0.1835 H   0  0  0  0  0  0  0  0  0  0  0  0
    4.7256   -0.4325    3.0738 H   0  0  0  0  0  0  0  0  0  0  0  0
    7.1226   -0.4335    3.0815 H   0  0  0  0  0  0  0  0  0  0  0  0
    9.2317   -0.4364    0.1417 H   0  0  0  0  0  0  0  0  0  0  0  0
    7.1374   -0.4347   -1.0692 H   0  0  0  0  0  0  0  0  0  0  0  0
    4.7405   -0.4351   -1.0710 H   0  0  0  0  0  0  0  0  0  0  0  0
    1.9238    0.5286    3.3399 H   0  0  0  0  0  0  0  0  0  0  0  0
    0.5096    0.5286    4.1564 H   0  0  0  0  0  0  0  0  0  0  0  0
    1.8033    2.4331    4.7643 H   0  0  0  0  0  0  0  0  0  0  0  0
    1.8438    2.9045    3.2014 H   0  0  0  0  0  0  0  0  0  0  0  0
    0.4296    2.9045    4.0179 H   0  0  0  0  0  0  0  0  0  0  0  0
  1  2  1  0  0  0  0
  2  3  2  0  0  0  0
  2  4  1  0  0  0  0
  4  5  1  0  0  0  0
  5  6  1  0  0  0  0
  6  7  2  0  0  0  0
  6  8  1  0  0  0  0
  8  9  1  0  0  0  0
  9 10  1  0  0  0  0
 10 11  2  0  0  0  0
 10 12  1  0  0  0  0
  8 13  1  0  0  0  0
 13 14  1  0  0  0  0
 14 15  1  0  0  0  0
 15 16  2  0  0  0  0
 16 17  1  0  0  0  0
 17 18  1  0  0  0  0
 17 19  2  0  0  0  0
 19 20  1  0  0  0  0
 20 14  2  0  0  0  0
  5 21  1  0  0  0  0
 21 22  1  0  0  0  0
  4 23  1  0  0  0  0
  4 24  1  0  0  0  0
  8 25  1  0  0  0  0
  9 26  1  0  0  0  0
 12 27  1  0  0  0  0
 12 28  1  0  0  0  0
 12 29  1  0  0  0  0
 13 30  1  0  0  0  0
 13 31  1  0  0  0  0
 15 32  1  0  0  0  0
 16 33  1  0  0  0  0
 18 34  1  0  0  0  0
 19 35  1  0  0  0  0
 20 36  1  0  0  0  0
 21 37  1  0  0  0  0
 21 38  1  0  0  0  0
 22 39  1  0  0  0  0
 22 40  1  0  0  0  0
 22 41  1  0  0  0  0
M  CHG  1   1  -1
M  END
>  <result-rank>
54

>  <similarity>
0.946

>  <query-name>
LIG_A_1101_CCCC[R*]_2

>  <query-smiles>
O=C(NCCCC)[C@@H](NC(=O)C)Cc1ccc(O)cc1

>  <source>
REALspace_2019-12

>  <similarity-descriptor>
1.000;0.852;0.852;0.984;0.984;0.949;0.0;1.000;1.000;1.000;1.000;1.000;1.000;0.077

>  <similarity-descriptor-smiles>
c1ccccc1;C=O;C=O;CNC;CNC;C;;C;N;C=O;C;C;O;[O-]C=O

>  <reaction-name>
s_188690b

>  <reagent1-name>
7326520

>  <reagent1-smiles>
[R1*]N(CC(=O)O)CC

>  <reagent2-name>
17513482

>  <reagent2-smiles>
[R1*]C(=O)C(NC(=O)C)Cc1ccc(O)cc1

$$$$
s_2230a____7912836____666216
          04022015093D 1   1.00000     0.00000     0
            
 47 47  0  0  0  0            999 V2000
    2.5142    2.7694    1.3883 O   0  0  0  0  0  0  0  0  0  0  0  0
    1.8776    1.8776    1.8776 C   0  0  0  0  0  0  0  0  0  0  0  0
    1.9417    1.6504    3.2271 N   0  0  0  0  0  0  0  0  0  0  0  0
    2.7904    2.4991    4.0758 C   0  0  3  0  0  0  0  0  0  0  0  0
    3.8351    1.6393    4.7685 C   0  0  0  0  0  0  0  0  0  0  0  0
    4.9593    2.0413    4.8886 O   0  0  0  0  0  0  0  0  0  0  0  0
    3.4557    0.2702    5.3090 C   0  0  0  0  0  0  0  0  0  0  0  0
    1.9306    3.1918    5.1204 C   0  0  0  0  0  0  0  0  0  0  0  0
    0.8858    4.0518    4.4276 C   0  0  0  0  0  0  0  0  0  0  0  0
   -0.3522    3.5057    4.1049 C   0  0  0  0  0  0  0  0  0  0  0  0
   -1.3051    4.2959    3.4702 C   0  0  0  0  0  0  0  0  0  0  0  0
   -1.0172    5.6218    3.1641 C   0  0  0  0  0  0  0  0  0  0  0  0
    0.2227    6.1567    3.4916 C   0  0  0  0  0  0  0  0  0  0  0  0
    1.1842    5.3767    4.1258 C   0  0  0  0  0  0  0  0  0  0  0  0
    1.0000    1.0000    1.0000 C   0  0  0  0  0  0  0  0  0  0  0  0
    0.7171    1.6971   -0.2629 N   0  3  3  0  0  0  0  0  0  0  0  0
   -0.1316    0.8484   -1.1116 C   0  0  0  0  0  0  0  0  0  0  0  0
    0.5892   -0.4575   -1.4041 C   0  0  0  0  0  0  0  0  0  0  0  0
    1.1535   -1.4798   -1.6331 C   0  0  0  0  0  0  0  0  0  0  0  0
    0.0200    2.9600    0.0200 C   0  0  0  0  0  0  0  0  0  0  0  0
   -0.3822    3.6208   -1.2884 C   0  0  0  0  0  0  0  0  0  0  0  0
   -1.1030    4.9267   -0.9959 C   0  0  0  0  0  0  0  0  0  0  0  0
    1.5762    1.8895   -0.7371 H   0  0  0  0  0  0  0  0  0  0  0  0
    1.4112    0.9072    3.6348 H   0  0  0  0  0  0  0  0  0  0  0  0
    3.2462    3.1863    3.5101 H   0  0  0  0  0  0  0  0  0  0  0  0
    2.4884    0.0955    5.1250 H   0  0  0  0  0  0  0  0  0  0  0  0
    4.0119   -0.4304    4.8621 H   0  0  0  0  0  0  0  0  0  0  0  0
    3.6172    0.2449    6.2956 H   0  0  0  0  0  0  0  0  0  0  0  0
    1.4749    2.5045    5.6861 H   0  0  0  0  0  0  0  0  0  0  0  0
    2.5080    3.7691    5.6978 H   0  0  0  0  0  0  0  0  0  0  0  0
   -0.5557    2.5523    4.3275 H   0  0  0  0  0  0  0  0  0  0  0  0
   -2.1972    3.9106    3.2340 H   0  0  0  0  0  0  0  0  0  0  0  0
   -1.7024    6.1900    2.7084 H   0  0  0  0  0  0  0  0  0  0  0  0
    0.4255    7.1104    3.2696 H   0  0  0  0  0  0  0  0  0  0  0  0
    2.0762    5.7625    4.3612 H   0  0  0  0  0  0  0  0  0  0  0  0
    1.4742    0.1409    0.8075 H   0  0  0  0  0  0  0  0  0  0  0  0
    0.1409    0.8075    1.4742 H   0  0  0  0  0  0  0  0  0  0  0  0
   -0.3241    1.3226   -1.9707 H   0  0  0  0  0  0  0  0  0  0  0  0
   -0.9907    0.6559   -0.6374 H   0  0  0  0  0  0  0  0  0  0  0  0
    1.6277   -2.3389   -1.8256 H   0  0  0  0  0  0  0  0  0  0  0  0
    0.6281    3.5698    0.5283 H   0  0  0  0  0  0  0  0  0  0  0  0
   -0.7977    2.7746    0.5649 H   0  0  0  0  0  0  0  0  0  0  0  0
   -0.9903    3.0111   -1.7967 H   0  0  0  0  0  0  0  0  0  0  0  0
    0.4355    3.8063   -1.8333 H   0  0  0  0  0  0  0  0  0  0  0  0
   -1.3676    5.3615   -1.8567 H   0  0  0  0  0  0  0  0  0  0  0  0
   -1.9207    4.7413   -0.4509 H   0  0  0  0  0  0  0  0  0  0  0  0
   -0.4949    5.5365   -0.4876 H   0  0  0  0  0  0  0  0  0  0  0  0
  1  2  2  0  0  0  0
  2  3  1  0  0  0  0
  3  4  1  0  0  0  0
  4  5  1  0  0  0  0
  5  6  2  0  0  0  0
  5  7  1  0  0  0  0
  4  8  1  0  0  0  0
  8  9  1  0  0  0  0
  9 10  1  0  0  0  0
 10 11  2  0  0  0  0
 11 12  1  0  0  0  0
 12 13  2  0  0  0  0
 13 14  1  0  0  0  0
 14  9  2  0  0  0  0
  2 15  1  0  0  0  0
 15 16  1  0  0  0  0
 16 17  1  0  0  0  0
 17 18  1  0  0  0  0
 18 19  3  0  0  0  0
 16 20  1  0  0  0  0
 20 21  1  0  0  0  0
 21 22  1  0  0  0  0
 16 23  1  0  0  0  0
  3 24  1  0  0  0  0
  4 25  1  0  0  0  0
  7 26  1  0  0  0  0
  7 27  1  0  0  0  0
  7 28  1  0  0  0  0
  8 29  1  0  0  0  0
  8 30  1  0  0  0  0
 10 31  1  0  0  0  0
 11 32  1  0  0  0  0
 12 33  1  0  0  0  0
 13 34  1  0  0  0  0
 14 35  1  0  0  0  0
 15 36  1  0  0  0  0
 15 37  1  0  0  0  0
 17 38  1  0  0  0  0
 17 39  1  0  0  0  0
 19 40  1  0  0  0  0
 20 41  1  0  0  0  0
 20 42  1  0  0  0  0
 21 43  1  0  0  0  0
 21 44  1  0  0  0  0
 22 45  1  0  0  0  0
 22 46  1  0  0  0  0
 22 47  1  0  0  0  0
M  CHG  1  16   1
M  END
>  <result-rank>
55

>  <similarity>
0.946

>  <query-name>
LIG_A_1101_CCCC[R*]_2

>  <query-smiles>
O=C(NCCCC)[C@@H](NC(=O)C)Cc1ccc(O)cc1

>  <source>
REALspace_2019-12

>  <similarity-descriptor>
0.960;1.000;0.983;0.983;0.993;1.000;1.000;1.000;1.000;0.907;1.000;1.000;0.0;0.200

>  <similarity-descriptor-smiles>
c1ccccc1;O=C;C[NH+];C[NH+];C;C;C;NC;NC;C=O;C;C;;C.C.C

>  <reaction-name>
s_2230a

>  <reagent1-name>
7912836

>  <reagent1-smiles>
[R1*]N(CC#C)CCC

>  <reagent2-name>
666216

>  <reagent2-smiles>
[R1*]CC(=O)NC(C(=O)C)Cc1ccccc1

$$$$
s_22____12427814____9736368
          04022015093D 1   1.00000     0.00000     0
            
 39 39  0  0  0  0            999 V2000
   -6.1874   -0.4321   -0.5665 Cl  0  0  0  0  0  0  0  0  0  0  0  0
   -5.2957   -0.4327    0.9741 C   0  0  0  0  0  0  0  0  0  0  0  0
   -5.9961   -0.4333    2.1758 C   0  0  0  0  0  0  0  0  0  0  0  0
   -7.7761   -0.4336    2.1683 Cl  0  0  0  0  0  0  0  0  0  0  0  0
   -5.3189   -0.4328    3.3909 C   0  0  0  0  0  0  0  0  0  0  0  0
   -3.9275   -0.4328    3.3910 C   0  0  0  0  0  0  0  0  0  0  0  0
   -3.2319   -0.4331    2.1865 C   0  0  0  0  0  0  0  0  0  0  0  0
   -3.9051   -0.4331    0.9696 C   0  0  0  0  0  0  0  0  0  0  0  0
   -1.7117   -0.4331    2.1865 C   0  0  0  0  0  0  0  0  0  0  0  0
   -1.2050    1.0000    2.1865 C   0  0  3  0  0  0  0  0  0  0  0  0
   -1.6950    1.6930    3.3867 N   0  0  0  0  0  0  0  0  0  0  0  0
   -1.9233    3.0434    3.3528 C   0  0  0  0  0  0  0  0  0  0  0  0
   -2.3233    3.6091    4.3326 O   0  0  0  0  0  0  0  0  0  0  0  0
    0.3150    1.0000    2.1865 C   0  0  0  0  0  0  0  0  0  0  0  0
    0.9150    1.0000    3.2257 O   0  0  0  0  0  0  0  0  0  0  0  0
    1.0000    1.0000    1.0000 N   0  0  0  0  0  0  0  0  0  0  0  0
    2.4700    1.0000    1.0000 C   0  0  0  0  0  0  0  0  0  0  0  0
    2.9767   -0.4331    1.0000 C   0  0  0  0  0  0  0  0  0  0  0  0
    4.4967   -0.4331    1.0000 C   0  0  3  0  0  0  0  0  0  0  0  0
    4.9700    0.2363   -0.1594 O   0  0  0  0  0  0  0  0  0  0  0  0
    5.0033   -1.8661    1.0000 C   0  0  0  0  0  0  0  0  0  0  0  0
    6.3333   -1.8661    1.0000 F   0  0  0  0  0  0  0  0  0  0  0  0
    4.5600   -2.4931    2.0859 F   0  0  0  0  0  0  0  0  0  0  0  0
   -5.8255   -0.4324    4.2531 H   0  0  0  0  0  0  0  0  0  0  0  0
   -3.4276   -0.4327    4.2570 H   0  0  0  0  0  0  0  0  0  0  0  0
   -3.3986   -0.4334    0.1074 H   0  0  0  0  0  0  0  0  0  0  0  0
   -1.3783   -0.9045    1.3700 H   0  0  0  0  0  0  0  0  0  0  0  0
   -1.3783   -0.9045    3.0030 H   0  0  0  0  0  0  0  0  0  0  0  0
   -1.5383    1.4714    1.3700 H   0  0  0  0  0  0  0  0  0  0  0  0
   -1.8617    1.1787    4.2280 H   0  0  0  0  0  0  0  0  0  0  0  0
   -1.7567    3.5577    2.5115 H   0  0  0  0  0  0  0  0  0  0  0  0
    0.5000    1.0000    0.1340 H   0  0  0  0  0  0  0  0  0  0  0  0
    2.8033    1.4714    1.8165 H   0  0  0  0  0  0  0  0  0  0  0  0
    2.8033    1.4714    0.1835 H   0  0  0  0  0  0  0  0  0  0  0  0
    2.6433   -0.9045    1.8165 H   0  0  0  0  0  0  0  0  0  0  0  0
    2.6433   -0.9045    0.1835 H   0  0  0  0  0  0  0  0  0  0  0  0
    4.8300    0.0383    1.8165 H   0  0  0  0  0  0  0  0  0  0  0  0
    4.6367    1.1791   -0.1594 H   0  0  0  0  0  0  0  0  0  0  0  0
    4.6700   -2.3375    0.1835 H   0  0  0  0  0  0  0  0  0  0  0  0
  1  2  1  0  0  0  0
  2  3  1  0  0  0  0
  3  4  1  0  0  0  0
  3  5  2  0  0  0  0
  5  6  1  0  0  0  0
  6  7  2  0  0  0  0
  7  8  1  0  0  0  0
  8  2  2  0  0  0  0
  7  9  1  0  0  0  0
  9 10  1  0  0  0  0
 10 11  1  0  0  0  0
 11 12  1  0  0  0  0
 12 13  2  0  0  0  0
 10 14  1  0  0  0  0
 14 15  2  0  0  0  0
 14 16  1  0  0  0  0
 16 17  1  0  0  0  0
 17 18  1  0  0  0  0
 18 19  1  0  0  0  0
 19 20  1  0  0  0  0
 19 21  1  0  0  0  0
 21 22  1  0  0  0  0
 21 23  1  0  0  0  0
  5 24  1  0  0  0  0
  6 25  1  0  0  0  0
  8 26  1  0  0  0  0
  9 27  1  0  0  0  0
  9 28  1  0  0  0  0
 10 29  1  0  0  0  0
 11 30  1  0  0  0  0
 12 31  1  0  0  0  0
 16 32  1  0  0  0  0
 17 33  1  0  0  0  0
 17 34  1  0  0  0  0
 18 35  1  0  0  0  0
 18 36  1  0  0  0  0
 19 37  1  0  0  0  0
 20 38  1  0  0  0  0
 21 39  1  0  0  0  0
M  END
>  <result-rank>
56

>  <similarity>
0.945

>  <query-name>
LIG_A_1101_CCCC[R*]_2

>  <query-smiles>
O=C(NCCCC)[C@@H](NC(=O)C)Cc1ccc(O)cc1

>  <source>
REALspace_2019-12

>  <similarity-descriptor>
0.921;1.000;1.000;1.000;1.000;0.994;0.994;1.000;1.000;0.952;0.0;1.000;0.0;0.083

>  <similarity-descriptor-smiles>
Clc1ccccc1Cl;C=O;N;C;C;CC(F)F;CC(F)F;CN;CN;C=O;;C;;O

>  <reaction-name>
s_22

>  <reagent1-name>
12427814

>  <reagent1-smiles>
[R1*]NCCC(O)C(F)F

>  <reagent2-name>
9736368

>  <reagent2-smiles>
[R1*]C(=O)C(NC=O)Cc1cc(Cl)c(Cl)cc1

$$$$
s_22____57813____107332
          04022015093D 1   1.00000     0.00000     0
            
 44 44  0  0  0  0            999 V2000
    1.6287   -2.8076   -4.4731 Cl  0  0  0  0  0  0  0  0  0  0  0  0
    2.0403   -1.5646   -3.2675 C   0  0  0  0  0  0  0  0  0  0  0  0
    2.8044   -1.9046   -2.1567 C   0  0  0  0  0  0  0  0  0  0  0  0
    3.1278   -0.9363   -1.2116 C   0  0  0  0  0  0  0  0  0  0  0  0
    2.6787    0.3673   -1.3944 C   0  0  0  0  0  0  0  0  0  0  0  0
    1.9143    0.7077   -2.5049 C   0  0  0  0  0  0  0  0  0  0  0  0
    1.5908   -0.2609   -3.4501 C   0  0  0  0  0  0  0  0  0  0  0  0
    3.0267    1.4309   -0.3667 C   0  0  3  0  0  0  0  0  0  0  0  0
    4.4855    1.6046   -0.3161 N   0  0  0  0  0  0  0  0  0  0  0  0
    5.0404    2.8242   -0.6018 C   0  0  0  0  0  0  0  0  0  0  0  0
    4.3356    3.7506   -0.8934 O   0  0  0  0  0  0  0  0  0  0  0  0
    6.5489    3.0038   -0.5495 C   0  0  0  0  0  0  0  0  0  0  0  0
    2.5200    1.0000    1.0000 C   0  0  0  0  0  0  0  0  0  0  0  0
    1.0000    1.0000    1.0000 C   0  0  0  0  0  0  0  0  0  0  0  0
    0.4000    1.0000   -0.0392 O   0  0  0  0  0  0  0  0  0  0  0  0
    0.3150    1.0000    2.1865 N   0  0  0  0  0  0  0  0  0  0  0  0
   -1.1550    1.0000    2.1865 C   0  0  0  0  0  0  0  0  0  0  0  0
   -1.6617    1.0000    3.6195 C   0  0  0  0  0  0  0  0  0  0  0  0
   -3.1317    1.0000    3.6195 N   0  3  0  0  0  0  0  0  0  0  0  0
   -3.6217    1.0000    5.0055 C   0  0  0  0  0  0  0  0  0  0  0  0
   -3.6217    2.2002    2.9266 C   0  0  0  0  0  0  0  0  0  0  0  0
   -3.4650    0.1835    3.1481 H   0  0  0  0  0  0  0  0  0  0  0  0
    3.1216   -2.8454   -2.0371 H   0  0  0  0  0  0  0  0  0  0  0  0
    3.6767   -1.1747   -0.4104 H   0  0  0  0  0  0  0  0  0  0  0  0
    1.5971    1.6485   -2.6242 H   0  0  0  0  0  0  0  0  0  0  0  0
    1.0417   -0.0225   -4.2512 H   0  0  0  0  0  0  0  0  0  0  0  0
    2.5967    2.2963   -0.6240 H   0  0  0  0  0  0  0  0  0  0  0  0
    5.0728    0.8326   -0.0731 H   0  0  0  0  0  0  0  0  0  0  0  0
    6.9789    2.1384   -0.2922 H   0  0  0  0  0  0  0  0  0  0  0  0
    6.8822    3.2873   -1.4486 H   0  0  0  0  0  0  0  0  0  0  0  0
    6.7779    3.7039    0.1269 H   0  0  0  0  0  0  0  0  0  0  0  0
    2.8533    0.0795    1.2041 H   0  0  0  0  0  0  0  0  0  0  0  0
    2.8533    1.6370    1.6951 H   0  0  0  0  0  0  0  0  0  0  0  0
    0.8150    1.0000    3.0525 H   0  0  0  0  0  0  0  0  0  0  0  0
   -1.4883    0.1835    1.7151 H   0  0  0  0  0  0  0  0  0  0  0  0
   -1.4883    1.8165    1.7151 H   0  0  0  0  0  0  0  0  0  0  0  0
   -1.3283    0.1835    4.0909 H   0  0  0  0  0  0  0  0  0  0  0  0
   -1.3283    1.8165    4.0909 H   0  0  0  0  0  0  0  0  0  0  0  0
   -4.6217    1.0000    5.0055 H   0  0  0  0  0  0  0  0  0  0  0  0
   -3.2883    0.1835    5.4769 H   0  0  0  0  0  0  0  0  0  0  0  0
   -3.2883    1.8165    5.4769 H   0  0  0  0  0  0  0  0  0  0  0  0
   -4.6217    2.2002    2.9266 H   0  0  0  0  0  0  0  0  0  0  0  0
   -3.2883    3.0167    3.3980 H   0  0  0  0  0  0  0  0  0  0  0  0
   -3.2883    2.2002    1.9838 H   0  0  0  0  0  0  0  0  0  0  0  0
  1  2  1  0  0  0  0
  2  3  1  0  0  0  0
  3  4  2  0  0  0  0
  4  5  1  0  0  0  0
  5  6  2  0  0  0  0
  6  7  1  0  0  0  0
  7  2  2  0  0  0  0
  5  8  1  0  0  0  0
  8  9  1  0  0  0  0
  9 10  1  0  0  0  0
 10 11  2  0  0  0  0
 10 12  1  0  0  0  0
  8 13  1  0  0  0  0
 13 14  1  0  0  0  0
 14 15  2  0  0  0  0
 14 16  1  0  0  0  0
 16 17  1  0  0  0  0
 17 18  1  0  0  0  0
 18 19  1  0  0  0  0
 19 20  1  0  0  0  0
 19 21  1  0  0  0  0
 19 22  1  0  0  0  0
  3 23  1  0  0  0  0
  4 24  1  0  0  0  0
  6 25  1  0  0  0  0
  7 26  1  0  0  0  0
  8 27  1  0  0  0  0
  9 28  1  0  0  0  0
 12 29  1  0  0  0  0
 12 30  1  0  0  0  0
 12 31  1  0  0  0  0
 13 32  1  0  0  0  0
 13 33  1  0  0  0  0
 16 34  1  0  0  0  0
 17 35  1  0  0  0  0
 17 36  1  0  0  0  0
 18 37  1  0  0  0  0
 18 38  1  0  0  0  0
 20 39  1  0  0  0  0
 20 40  1  0  0  0  0
 20 41  1  0  0  0  0
 21 42  1  0  0  0  0
 21 43  1  0  0  0  0
 21 44  1  0  0  0  0
M  CHG  1  19   1
M  END
>  <result-rank>
57

>  <similarity>
0.945

>  <query-name>
LIG_A_1101_CCCC[R*]_2

>  <query-smiles>
O=C(NCCCC)[C@@H](NC(=O)C)Cc1ccc(O)cc1

>  <source>
REALspace_2019-12

>  <similarity-descriptor>
0.968;1.000;1.000;0.997;0.997;0.505;0.995;1.000;1.000;1.000;1.000;1.000;0.0;0.0

>  <similarity-descriptor-smiles>
Clc1ccccc1;C=O;N;CC;CC;[NH+]C;C;CC;N;C=O;C;CC;;

>  <reaction-name>
s_22

>  <reagent1-name>
57813

>  <reagent1-smiles>
[R1*]NCCN(C)C

>  <reagent2-name>
107332

>  <reagent2-smiles>
[R1*]C(=O)CC(NC(=O)C)c1ccc(Cl)cc1

$$$$
s_240690b____17025736____11954850
          04022015093D 1   1.00000     0.00000     0
            
 42 42  0  0  0  0            999 V2000
    0.4000   -0.0392    1.0000 O   0  0  0  0  0  0  0  0  0  0  0  0
    1.0000    1.0000    1.0000 C   0  0  0  0  0  0  0  0  0  0  0  0
    2.3700    1.0000    1.0000 N   0  0  0  0  0  0  0  0  0  0  0  0
    3.1050   -0.2731    1.0000 C   0  0  3  0  0  0  0  0  0  0  0  0
    3.9789   -0.3536    2.2411 C   0  0  0  0  0  0  0  0  0  0  0  0
    4.9016    0.7257    2.2411 O   0  0  0  0  0  0  0  0  0  0  0  0
    3.9789   -0.3536   -0.2411 C   0  0  0  0  0  0  0  0  0  0  0  0
    3.1050   -0.2731   -1.4822 C   0  0  0  0  0  0  0  0  0  0  0  0
    2.8226    0.9691   -2.0410 C   0  0  0  0  0  0  0  0  0  0  0  0
    2.0241    1.0476   -3.1770 C   0  0  0  0  0  0  0  0  0  0  0  0
    1.5177   -0.1192   -3.7409 C   0  0  0  0  0  0  0  0  0  0  0  0
    0.7420   -0.0476   -4.8432 O   0  0  0  0  0  0  0  0  0  0  0  0
    1.7968   -1.3640   -3.1858 C   0  0  0  0  0  0  0  0  0  0  0  0
    2.5962   -1.4366   -2.0500 C   0  0  0  0  0  0  0  0  0  0  0  0
    0.2400    2.3164    1.0000 C   0  0  0  0  0  0  0  0  0  0  0  0
   -1.2052    2.0477    1.0000 N   0  3  0  0  0  0  0  0  0  0  0  0
   -1.9402    3.3208    1.0000 C   0  0  0  0  0  0  0  0  0  0  0  0
   -3.4347    3.0431    1.0000 C   0  0  0  0  0  0  0  0  0  0  0  0
   -1.5730    4.1179    2.2411 C   0  0  0  0  0  0  0  0  0  0  0  0
   -1.4468    1.5234    0.1835 H   0  0  0  0  0  0  0  0  0  0  0  0
   -1.4468    1.5234    1.8165 H   0  0  0  0  0  0  0  0  0  0  0  0
    2.8700    1.8660    1.0000 H   0  0  0  0  0  0  0  0  0  0  0  0
    2.4552   -1.0331    1.0000 H   0  0  0  0  0  0  0  0  0  0  0  0
    3.4040   -0.3006    3.0576 H   0  0  0  0  0  0  0  0  0  0  0  0
    4.4789   -1.2196    2.2411 H   0  0  0  0  0  0  0  0  0  0  0  0
    5.4765    0.6728    3.0576 H   0  0  0  0  0  0  0  0  0  0  0  0
    4.6287    0.4065   -0.2411 H   0  0  0  0  0  0  0  0  0  0  0  0
    4.4789   -1.2196   -0.2411 H   0  0  0  0  0  0  0  0  0  0  0  0
    3.1920    1.8015   -1.6279 H   0  0  0  0  0  0  0  0  0  0  0  0
    1.8154    1.9361   -3.5856 H   0  0  0  0  0  0  0  0  0  0  0  0
    0.3758   -0.8835   -5.2521 H   0  0  0  0  0  0  0  0  0  0  0  0
    1.4271   -2.1964   -3.5984 H   0  0  0  0  0  0  0  0  0  0  0  0
    2.8052   -2.3252   -1.6416 H   0  0  0  0  0  0  0  0  0  0  0  0
    0.4816    2.8407    1.8165 H   0  0  0  0  0  0  0  0  0  0  0  0
    0.4816    2.8407    0.1835 H   0  0  0  0  0  0  0  0  0  0  0  0
   -1.6987    3.8452    0.1835 H   0  0  0  0  0  0  0  0  0  0  0  0
   -3.9347    3.9091    1.0000 H   0  0  0  0  0  0  0  0  0  0  0  0
   -3.6762    2.5187    0.1835 H   0  0  0  0  0  0  0  0  0  0  0  0
   -3.6762    2.5187    1.8165 H   0  0  0  0  0  0  0  0  0  0  0  0
   -2.0730    4.9839    2.2411 H   0  0  0  0  0  0  0  0  0  0  0  0
   -1.8146    3.5935    3.0576 H   0  0  0  0  0  0  0  0  0  0  0  0
   -0.5899    4.3006    2.2411 H   0  0  0  0  0  0  0  0  0  0  0  0
  1  2  2  0  0  0  0
  2  3  1  0  0  0  0
  3  4  1  0  0  0  0
  4  5  1  0  0  0  0
  5  6  1  0  0  0  0
  4  7  1  0  0  0  0
  7  8  1  0  0  0  0
  8  9  1  0  0  0  0
  9 10  2  0  0  0  0
 10 11  1  0  0  0  0
 11 12  1  0  0  0  0
 11 13  2  0  0  0  0
 13 14  1  0  0  0  0
 14  8  2  0  0  0  0
  2 15  1  0  0  0  0
 15 16  1  0  0  0  0
 16 17  1  0  0  0  0
 17 18  1  0  0  0  0
 17 19  1  0  0  0  0
 16 20  1  0  0  0  0
 16 21  1  0  0  0  0
  3 22  1  0  0  0  0
  4 23  1  0  0  0  0
  5 24  1  0  0  0  0
  5 25  1  0  0  0  0
  6 26  1  0  0  0  0
  7 27  1  0  0  0  0
  7 28  1  0  0  0  0
  9 29  1  0  0  0  0
 10 30  1  0  0  0  0
 12 31  1  0  0  0  0
 13 32  1  0  0  0  0
 14 33  1  0  0  0  0
 15 34  1  0  0  0  0
 15 35  1  0  0  0  0
 17 36  1  0  0  0  0
 18 37  1  0  0  0  0
 18 38  1  0  0  0  0
 18 39  1  0  0  0  0
 19 40  1  0  0  0  0
 19 41  1  0  0  0  0
 19 42  1  0  0  0  0
M  CHG  1  16   1
M  END
>  <result-rank>
58

>  <similarity>
0.945

>  <query-name>
LIG_A_1101_CCCC[R*]_2

>  <query-smiles>
O=C(NCCCC)[C@@H](NC(=O)C)Cc1ccc(O)cc1

>  <source>
REALspace_2019-12

>  <similarity-descriptor>
1.000;1.000;0.807;0.807;0.995;0.995;1.000;0.999;0.999;0.730;0.730;1.000;1.000;0.0

>  <similarity-descriptor-smiles>
c1ccccc1;O=C;C[NH2+];C[NH2+];CC;CC;C;NC;NC;CO;CO;C;O;

>  <reaction-name>
s_240690b

>  <reagent1-name>
17025736

>  <reagent1-smiles>
[R1*]NC(CO)Cc1ccc(O)cc1

>  <reagent2-name>
11954850

>  <reagent2-smiles>
[R1*]C(=O)CNC(C)C

$$$$
s_1458____17513454____13763166
          04022015093D 1   1.00000     0.00000     0
            
 45 46  0  0  0  0            999 V2000
    2.9100    2.0392    1.0000 O   0  0  0  0  0  0  0  0  0  0  0  0
    2.3100    1.0000    1.0000 C   0  0  0  0  0  0  0  0  0  0  0  0
    1.0000    1.0000    1.0000 O   0  0  0  0  0  0  0  0  0  0  0  0
    0.2900    2.2298    1.0000 C   0  0  0  0  0  0  0  0  0  0  0  0
    0.0367    2.6685   -0.4331 C   0  0  0  0  0  0  0  0  0  0  0  0
   -0.7232    3.9846   -0.4331 C   0  0  0  0  0  0  0  0  0  0  0  0
   -0.0343    5.1355    0.2436 C   0  0  0  0  0  0  0  0  0  0  0  0
   -1.2113    4.4736    0.9009 C   0  0  0  0  0  0  0  0  0  0  0  0
   -1.5851    4.3393   -1.6346 C   0  0  0  0  0  0  0  0  0  0  0  0
    3.0700   -0.3164    1.0000 C   0  0  3  0  0  0  0  0  0  0  0  0
    4.5152   -0.0477    1.0000 N   0  0  0  0  0  0  0  0  0  0  0  0
    5.2971   -0.5058    2.0275 C   0  0  0  0  0  0  0  0  0  0  0  0
    4.8022   -1.1263    2.9275 O   0  0  0  0  0  0  0  0  0  0  0  0
    6.7915   -0.2281    2.0275 C   0  0  0  0  0  0  0  0  0  0  0  0
    2.7028   -1.1134   -0.2411 C   0  0  0  0  0  0  0  0  0  0  0  0
    3.4628   -2.4298   -0.2411 C   0  0  0  0  0  0  0  0  0  0  0  0
    2.8968   -3.5469    0.3644 C   0  0  0  0  0  0  0  0  0  0  0  0
    3.5882   -4.7537    0.3662 C   0  0  0  0  0  0  0  0  0  0  0  0
    4.8387   -4.8280   -0.2391 C   0  0  0  0  0  0  0  0  0  0  0  0
    5.5134   -5.9972   -0.2393 O   0  0  0  0  0  0  0  0  0  0  0  0
    5.4095   -3.7138   -0.8457 C   0  0  0  0  0  0  0  0  0  0  0  0
    4.7135   -2.5097   -0.8449 C   0  0  0  0  0  0  0  0  0  0  0  0
    0.8304    2.9267    1.4714 H   0  0  0  0  0  0  0  0  0  0  0  0
   -0.5838    2.1102    1.4714 H   0  0  0  0  0  0  0  0  0  0  0  0
    0.9104    2.7881   -0.9045 H   0  0  0  0  0  0  0  0  0  0  0  0
   -0.5038    1.9716   -0.9045 H   0  0  0  0  0  0  0  0  0  0  0  0
   -0.1233    6.0597   -0.1276 H   0  0  0  0  0  0  0  0  0  0  0  0
    0.8831    5.0157    0.6233 H   0  0  0  0  0  0  0  0  0  0  0  0
   -1.0776    3.9132    1.7183 H   0  0  0  0  0  0  0  0  0  0  0  0
   -2.0840    4.9572    0.9673 H   0  0  0  0  0  0  0  0  0  0  0  0
   -2.0165    5.2288   -1.4844 H   0  0  0  0  0  0  0  0  0  0  0  0
   -1.0137    4.3801   -2.4543 H   0  0  0  0  0  0  0  0  0  0  0  0
   -2.2918    3.6421   -1.7553 H   0  0  0  0  0  0  0  0  0  0  0  0
    2.8284   -0.8407    1.8165 H   0  0  0  0  0  0  0  0  0  0  0  0
    4.9277    0.4693    0.2500 H   0  0  0  0  0  0  0  0  0  0  0  0
    7.0331    0.2963    1.2110 H   0  0  0  0  0  0  0  0  0  0  0  0
    7.0331    0.2963    2.8440 H   0  0  0  0  0  0  0  0  0  0  0  0
    7.2915   -1.0941    2.0275 H   0  0  0  0  0  0  0  0  0  0  0  0
    1.7196   -1.2961   -0.2411 H   0  0  0  0  0  0  0  0  0  0  0  0
    2.9444   -0.5890   -1.0576 H   0  0  0  0  0  0  0  0  0  0  0  0
    1.9971   -3.4826    0.7963 H   0  0  0  0  0  0  0  0  0  0  0  0
    3.1894   -5.5620    0.7993 H   0  0  0  0  0  0  0  0  0  0  0  0
    6.4125   -6.0555   -0.6731 H   0  0  0  0  0  0  0  0  0  0  0  0
    6.3094   -3.7778   -1.2771 H   0  0  0  0  0  0  0  0  0  0  0  0
    5.1120   -1.7014   -1.2783 H   0  0  0  0  0  0  0  0  0  0  0  0
  1  2  2  0  0  0  0
  2  3  1  0  0  0  0
  3  4  1  0  0  0  0
  4  5  1  0  0  0  0
  5  6  1  0  0  0  0
  6  7  1  0  0  0  0
  7  8  1  0  0  0  0
  8  6  1  0  0  0  0
  6  9  1  0  0  0  0
  2 10  1  0  0  0  0
 10 11  1  0  0  0  0
 11 12  1  0  0  0  0
 12 13  2  0  0  0  0
 12 14  1  0  0  0  0
 10 15  1  0  0  0  0
 15 16  1  0  0  0  0
 16 17  1  0  0  0  0
 17 18  2  0  0  0  0
 18 19  1  0  0  0  0
 19 20  1  0  0  0  0
 19 21  2  0  0  0  0
 21 22  1  0  0  0  0
 22 16  2  0  0  0  0
  4 23  1  0  0  0  0
  4 24  1  0  0  0  0
  5 25  1  0  0  0  0
  5 26  1  0  0  0  0
  7 27  1  0  0  0  0
  7 28  1  0  0  0  0
  8 29  1  0  0  0  0
  8 30  1  0  0  0  0
  9 31  1  0  0  0  0
  9 32  1  0  0  0  0
  9 33  1  0  0  0  0
 10 34  1  0  0  0  0
 11 35  1  0  0  0  0
 14 36  1  0  0  0  0
 14 37  1  0  0  0  0
 14 38  1  0  0  0  0
 15 39  1  0  0  0  0
 15 40  1  0  0  0  0
 17 41  1  0  0  0  0
 18 42  1  0  0  0  0
 20 43  1  0  0  0  0
 21 44  1  0  0  0  0
 22 45  1  0  0  0  0
M  END
>  <result-rank>
59

>  <similarity>
0.945

>  <query-name>
LIG_A_1101_CCCC[R*]_2

>  <query-smiles>
O=C(NCCCC)[C@@H](NC(=O)C)Cc1ccc(O)cc1

>  <source>
REALspace_2019-12

>  <similarity-descriptor>
1.000;0.998;0.283;0.999;1.000;0.893;0.893;1.000;1.000;1.000;1.000;1.000;1.000;0.077

>  <similarity-descriptor-smiles>
c1ccccc1;O=C;O;C;C;C1CC1;C1CC1;C;N;C=O;C;C;O;C

>  <reaction-name>
s_1458

>  <reagent1-name>
17513454

>  <reagent1-smiles>
[R1*]OC(=O)C(NC(=O)C)Cc1ccc(O)cc1

>  <reagent2-name>
13763166

>  <reagent2-smiles>
[R1*]CCC1(CC1)C

$$$$
s_22____58834____17513450
          04022015093D 1   1.00000     0.00000     0
            
 43 44  0  0  0  0            999 V2000
   -4.1707   -0.4331    0.8010 S   0  0  0  0  0  0  0  0  0  0  0  0
   -3.1836   -0.4331    2.1865 C   0  0  0  0  0  0  0  0  0  0  0  0
   -4.0050   -0.4374    3.2705 C   0  0  0  0  0  0  0  0  0  0  0  0
   -5.3848   -0.4283    2.9248 C   0  0  0  0  0  0  0  0  0  0  0  0
   -5.6775   -0.4223    1.5940 C   0  0  0  0  0  0  0  0  0  0  0  0
   -1.6617   -0.4331    2.1865 C   0  0  0  0  0  0  0  0  0  0  0  0
   -1.1550    1.0000    2.1865 C   0  0  0  0  0  0  0  0  0  0  0  0
    0.3150    1.0000    2.1865 N   0  0  0  0  0  0  0  0  0  0  0  0
    1.0000    1.0000    1.0000 C   0  0  0  0  0  0  0  0  0  0  0  0
    0.4000    1.0000   -0.0392 O   0  0  0  0  0  0  0  0  0  0  0  0
    2.5200    1.0000    1.0000 C   0  0  3  0  0  0  0  0  0  0  0  0
    3.0100    1.6930   -0.2002 N   0  0  0  0  0  0  0  0  0  0  0  0
    3.2383    3.0434   -0.1663 C   0  0  0  0  0  0  0  0  0  0  0  0
    3.0383    3.6605    0.8432 O   0  0  0  0  0  0  0  0  0  0  0  0
    3.7450    3.7599   -1.4074 C   0  0  0  0  0  0  0  0  0  0  0  0
    3.0267   -0.4331    1.0000 C   0  0  0  0  0  0  0  0  0  0  0  0
    4.5467   -0.4331    1.0000 C   0  0  0  0  0  0  0  0  0  0  0  0
    5.2311   -0.4331    2.2110 C   0  0  0  0  0  0  0  0  0  0  0  0
    6.6219   -0.4338    2.2159 C   0  0  0  0  0  0  0  0  0  0  0  0
    7.3116   -0.4351    1.0075 C   0  0  0  0  0  0  0  0  0  0  0  0
    8.7316   -0.4355    1.0077 O   0  0  0  0  0  0  0  0  0  0  0  0
    6.6320   -0.4347   -0.2063 C   0  0  0  0  0  0  0  0  0  0  0  0
    5.2412   -0.4344   -0.2053 C   0  0  0  0  0  0  0  0  0  0  0  0
   -3.6730   -0.4462    4.2138 H   0  0  0  0  0  0  0  0  0  0  0  0
   -6.1020   -0.4264    3.6216 H   0  0  0  0  0  0  0  0  0  0  0  0
   -6.5843   -0.4135    1.1726 H   0  0  0  0  0  0  0  0  0  0  0  0
   -1.3283   -0.9045    1.3700 H   0  0  0  0  0  0  0  0  0  0  0  0
   -1.3283   -0.9045    3.0030 H   0  0  0  0  0  0  0  0  0  0  0  0
   -1.4883    1.4714    1.3700 H   0  0  0  0  0  0  0  0  0  0  0  0
   -1.4883    1.4714    3.0030 H   0  0  0  0  0  0  0  0  0  0  0  0
    0.8150    1.0000    3.0525 H   0  0  0  0  0  0  0  0  0  0  0  0
    2.8533    1.4714    1.8165 H   0  0  0  0  0  0  0  0  0  0  0  0
    3.1767    1.1787   -1.0415 H   0  0  0  0  0  0  0  0  0  0  0  0
    3.8561    3.1005   -2.1510 H   0  0  0  0  0  0  0  0  0  0  0  0
    3.0863    4.4614   -1.6796 H   0  0  0  0  0  0  0  0  0  0  0  0
    4.6259    4.1892   -1.2082 H   0  0  0  0  0  0  0  0  0  0  0  0
    2.6933   -0.9045    1.8165 H   0  0  0  0  0  0  0  0  0  0  0  0
    2.6933   -0.9045    0.1835 H   0  0  0  0  0  0  0  0  0  0  0  0
    4.7256   -0.4325    3.0738 H   0  0  0  0  0  0  0  0  0  0  0  0
    7.1226   -0.4335    3.0815 H   0  0  0  0  0  0  0  0  0  0  0  0
    9.2317   -0.4364    0.1417 H   0  0  0  0  0  0  0  0  0  0  0  0
    7.1374   -0.4347   -1.0692 H   0  0  0  0  0  0  0  0  0  0  0  0
    4.7405   -0.4351   -1.0710 H   0  0  0  0  0  0  0  0  0  0  0  0
  1  2  1  0  0  0  0
  2  3  2  0  0  0  0
  3  4  1  0  0  0  0
  4  5  2  0  0  0  0
  5  1  1  0  0  0  0
  2  6  1  0  0  0  0
  6  7  1  0  0  0  0
  7  8  1  0  0  0  0
  8  9  1  0  0  0  0
  9 10  2  0  0  0  0
  9 11  1  0  0  0  0
 11 12  1  0  0  0  0
 12 13  1  0  0  0  0
 13 14  2  0  0  0  0
 13 15  1  0  0  0  0
 11 16  1  0  0  0  0
 16 17  1  0  0  0  0
 17 18  1  0  0  0  0
 18 19  2  0  0  0  0
 19 20  1  0  0  0  0
 20 21  1  0  0  0  0
 20 22  2  0  0  0  0
 22 23  1  0  0  0  0
 23 17  2  0  0  0  0
  3 24  1  0  0  0  0
  4 25  1  0  0  0  0
  5 26  1  0  0  0  0
  6 27  1  0  0  0  0
  6 28  1  0  0  0  0
  7 29  1  0  0  0  0
  7 30  1  0  0  0  0
  8 31  1  0  0  0  0
 11 32  1  0  0  0  0
 12 33  1  0  0  0  0
 15 34  1  0  0  0  0
 15 35  1  0  0  0  0
 15 36  1  0  0  0  0
 16 37  1  0  0  0  0
 16 38  1  0  0  0  0
 18 39  1  0  0  0  0
 19 40  1  0  0  0  0
 21 41  1  0  0  0  0
 22 42  1  0  0  0  0
 23 43  1  0  0  0  0
M  END
>  <result-rank>
60

>  <similarity>
0.945

>  <query-name>
LIG_A_1101_CCCC[R*]_2

>  <query-smiles>
O=C(NCCCC)[C@@H](NC(=O)C)Cc1ccc(O)cc1

>  <source>
REALspace_2019-12

>  <similarity-descriptor>
1.000;1.000;1.000;1.000;1.000;0.0;0.0;1.000;1.000;1.000;1.000;1.000;1.000;0.083

>  <similarity-descriptor-smiles>
c1ccccc1;C=O;N;CC;CC;;;C;N;C=O;C;C;O;S1C=CC=C1

>  <reaction-name>
s_22

>  <reagent1-name>
58834

>  <reagent1-smiles>
[R1*]NCCC=1SC=CC1

>  <reagent2-name>
17513450

>  <reagent2-smiles>
[R1*]C(=O)C(NC(=O)C)Cc1ccc(O)cc1

$$$$
s_22____10638314____17513450
          04022015093D 1   1.00000     0.00000     0
            
 42 43  0  0  0  0            999 V2000
    0.4000    1.0000   -0.0392 O   0  0  0  0  0  0  0  0  0  0  0  0
    1.0000    1.0000    1.0000 C   0  0  0  0  0  0  0  0  0  0  0  0
    0.3150    1.0000    2.1865 N   0  0  0  0  0  0  0  0  0  0  0  0
   -1.1550    1.0000    2.1865 C   0  0  0  0  0  0  0  0  0  0  0  0
   -1.6617   -0.4331    2.1865 C   0  0  0  0  0  0  0  0  0  0  0  0
   -3.1820   -0.4331    2.1865 C   0  0  0  0  0  0  0  0  0  0  0  0
   -3.9455   -0.4331    1.1174 N   0  0  0  0  0  0  0  0  0  0  0  0
   -5.1981   -0.4357    1.5175 N   0  0  0  0  0  0  0  0  0  0  0  0
   -5.2177   -0.4355    2.8813 C   0  0  0  0  0  0  0  0  0  0  0  0
   -3.9710   -0.4339    3.2970 N   0  0  0  0  0  0  0  0  0  0  0  0
    2.5200    1.0000    1.0000 C   0  0  3  0  0  0  0  0  0  0  0  0
    3.0100    1.6930   -0.2002 N   0  0  0  0  0  0  0  0  0  0  0  0
    3.2383    3.0434   -0.1663 C   0  0  0  0  0  0  0  0  0  0  0  0
    3.0383    3.6605    0.8432 O   0  0  0  0  0  0  0  0  0  0  0  0
    3.7450    3.7599   -1.4074 C   0  0  0  0  0  0  0  0  0  0  0  0
    3.0267   -0.4331    1.0000 C   0  0  0  0  0  0  0  0  0  0  0  0
    4.5467   -0.4331    1.0000 C   0  0  0  0  0  0  0  0  0  0  0  0
    5.2311   -0.4331    2.2110 C   0  0  0  0  0  0  0  0  0  0  0  0
    6.6219   -0.4338    2.2159 C   0  0  0  0  0  0  0  0  0  0  0  0
    7.3116   -0.4351    1.0075 C   0  0  0  0  0  0  0  0  0  0  0  0
    8.7316   -0.4355    1.0077 O   0  0  0  0  0  0  0  0  0  0  0  0
    6.6320   -0.4347   -0.2063 C   0  0  0  0  0  0  0  0  0  0  0  0
    5.2412   -0.4344   -0.2053 C   0  0  0  0  0  0  0  0  0  0  0  0
    0.8150    1.0000    3.0525 H   0  0  0  0  0  0  0  0  0  0  0  0
   -1.4883    1.4714    1.3700 H   0  0  0  0  0  0  0  0  0  0  0  0
   -1.4883    1.4714    3.0030 H   0  0  0  0  0  0  0  0  0  0  0  0
   -1.3283   -0.9045    1.3700 H   0  0  0  0  0  0  0  0  0  0  0  0
   -1.3283   -0.9045    3.0030 H   0  0  0  0  0  0  0  0  0  0  0  0
   -6.0014   -0.4376    0.9220 H   0  0  0  0  0  0  0  0  0  0  0  0
   -6.0331   -0.4363    3.4601 H   0  0  0  0  0  0  0  0  0  0  0  0
    2.8533    1.4714    1.8165 H   0  0  0  0  0  0  0  0  0  0  0  0
    3.1767    1.1787   -1.0415 H   0  0  0  0  0  0  0  0  0  0  0  0
    3.8561    3.1005   -2.1510 H   0  0  0  0  0  0  0  0  0  0  0  0
    3.0863    4.4614   -1.6796 H   0  0  0  0  0  0  0  0  0  0  0  0
    4.6259    4.1892   -1.2082 H   0  0  0  0  0  0  0  0  0  0  0  0
    2.6933   -0.9045    1.8165 H   0  0  0  0  0  0  0  0  0  0  0  0
    2.6933   -0.9045    0.1835 H   0  0  0  0  0  0  0  0  0  0  0  0
    4.7256   -0.4325    3.0738 H   0  0  0  0  0  0  0  0  0  0  0  0
    7.1226   -0.4335    3.0815 H   0  0  0  0  0  0  0  0  0  0  0  0
    9.2317   -0.4364    0.1417 H   0  0  0  0  0  0  0  0  0  0  0  0
    7.1374   -0.4347   -1.0692 H   0  0  0  0  0  0  0  0  0  0  0  0
    4.7405   -0.4351   -1.0710 H   0  0  0  0  0  0  0  0  0  0  0  0
  1  2  2  0  0  0  0
  2  3  1  0  0  0  0
  3  4  1  0  0  0  0
  4  5  1  0  0  0  0
  5  6  1  0  0  0  0
  6  7  2  0  0  0  0
  7  8  1  0  0  0  0
  8  9  1  0  0  0  0
  9 10  2  0  0  0  0
 10  6  1  0  0  0  0
  2 11  1  0  0  0  0
 11 12  1  0  0  0  0
 12 13  1  0  0  0  0
 13 14  2  0  0  0  0
 13 15  1  0  0  0  0
 11 16  1  0  0  0  0
 16 17  1  0  0  0  0
 17 18  1  0  0  0  0
 18 19  2  0  0  0  0
 19 20  1  0  0  0  0
 20 21  1  0  0  0  0
 20 22  2  0  0  0  0
 22 23  1  0  0  0  0
 23 17  2  0  0  0  0
  3 24  1  0  0  0  0
  4 25  1  0  0  0  0
  4 26  1  0  0  0  0
  5 27  1  0  0  0  0
  5 28  1  0  0  0  0
  8 29  1  0  0  0  0
  9 30  1  0  0  0  0
 11 31  1  0  0  0  0
 12 32  1  0  0  0  0
 15 33  1  0  0  0  0
 15 34  1  0  0  0  0
 15 35  1  0  0  0  0
 16 36  1  0  0  0  0
 16 37  1  0  0  0  0
 18 38  1  0  0  0  0
 19 39  1  0  0  0  0
 21 40  1  0  0  0  0
 22 41  1  0  0  0  0
 23 42  1  0  0  0  0
M  END
>  <result-rank>
61

>  <similarity>
0.945

>  <query-name>
LIG_A_1101_CCCC[R*]_2

>  <query-smiles>
O=C(NCCCC)[C@@H](NC(=O)C)Cc1ccc(O)cc1

>  <source>
REALspace_2019-12

>  <similarity-descriptor>
1.000;1.000;1.000;1.000;1.000;0.0;0.0;1.000;1.000;1.000;1.000;1.000;1.000;0.083

>  <similarity-descriptor-smiles>
c1ccccc1;O=C;N;CC;CC;;;C;N;C=O;C;C;O;C=1N=CNN1

>  <reaction-name>
s_22

>  <reagent1-name>
10638314

>  <reagent1-smiles>
[R1*]NCCC1=NC=NN1

>  <reagent2-name>
17513450

>  <reagent2-smiles>
[R1*]C(=O)C(NC(=O)C)Cc1ccc(O)cc1

$$$$
s_11a____6389022____220031
          04022015093D 1   1.00000     0.00000     0
            
 32 32  0  0  0  0            999 V2000
   -0.0099    4.4888   -0.1108 S   0  0  0  0  0  0  0  0  0  0  0  0
   -0.3197    2.8169   -0.0612 C   0  0  0  0  0  0  0  0  0  0  0  0
   -1.6387    2.6565    0.2294 C   0  0  0  0  0  0  0  0  0  0  0  0
   -2.3243    3.8899    0.4081 C   0  0  0  0  0  0  0  0  0  0  0  0
   -1.5830    5.0239    0.2611 C   0  0  0  0  0  0  0  0  0  0  0  0
    0.7075    1.7208   -0.3059 C   0  0  3  0  0  0  0  0  0  0  0  0
    0.1774    0.7625   -1.2864 N   0  0  0  0  0  0  0  0  0  0  0  0
    0.8400    0.5533   -2.4671 C   0  0  0  0  0  0  0  0  0  0  0  0
    1.8532    1.1524   -2.7009 O   0  0  0  0  0  0  0  0  0  0  0  0
    0.2918   -0.4376   -3.4811 C   0  0  0  0  0  0  0  0  0  0  0  0
    1.0000    1.0000    1.0000 C   0  0  0  0  0  0  0  0  0  0  0  0
    1.8776    1.8776    1.8776 C   0  0  0  0  0  0  0  0  0  0  0  0
    1.9688    3.0524    1.6507 O   0  0  0  0  0  0  0  0  0  0  0  0
    2.5644    1.3273    2.9275 N   0  0  0  0  0  0  0  0  0  0  0  0
    3.4131    2.1760    3.7762 C   0  0  0  0  0  0  0  0  0  0  0  0
    2.5455    2.9163    4.7811 C   0  0  0  0  0  0  0  0  0  0  0  0
    1.8977    2.0371    5.5402 F   0  0  0  0  0  0  0  0  0  0  0  0
    3.3134    3.6842    5.5489 F   0  0  0  0  0  0  0  0  0  0  0  0
   -2.0810    1.7632    0.3092 H   0  0  0  0  0  0  0  0  0  0  0  0
   -3.2988    3.9232    0.6300 H   0  0  0  0  0  0  0  0  0  0  0  0
   -1.8963    5.9691    0.3521 H   0  0  0  0  0  0  0  0  0  0  0  0
    1.5505    2.1267   -0.6586 H   0  0  0  0  0  0  0  0  0  0  0  0
   -0.6669    0.2633   -1.0917 H   0  0  0  0  0  0  0  0  0  0  0  0
   -0.5512   -0.8435   -3.1283 H   0  0  0  0  0  0  0  0  0  0  0  0
    0.0994    0.0366   -4.3402 H   0  0  0  0  0  0  0  0  0  0  0  0
    0.9667   -1.1578   -3.6418 H   0  0  0  0  0  0  0  0  0  0  0  0
    0.1409    0.8075    1.4742 H   0  0  0  0  0  0  0  0  0  0  0  0
    1.4742    0.1409    0.8075 H   0  0  0  0  0  0  0  0  0  0  0  0
    2.4883    0.3483    3.1166 H   0  0  0  0  0  0  0  0  0  0  0  0
    3.9001    2.8371    3.2055 H   0  0  0  0  0  0  0  0  0  0  0  0
    4.0741    1.6052    4.2633 H   0  0  0  0  0  0  0  0  0  0  0  0
    1.8844    3.4871    4.2940 H   0  0  0  0  0  0  0  0  0  0  0  0
  1  2  1  0  0  0  0
  2  3  2  0  0  0  0
  3  4  1  0  0  0  0
  4  5  2  0  0  0  0
  5  1  1  0  0  0  0
  2  6  1  0  0  0  0
  6  7  1  0  0  0  0
  7  8  1  0  0  0  0
  8  9  2  0  0  0  0
  8 10  1  0  0  0  0
  6 11  1  0  0  0  0
 11 12  1  0  0  0  0
 12 13  2  0  0  0  0
 12 14  1  0  0  0  0
 14 15  1  0  0  0  0
 15 16  1  0  0  0  0
 16 17  1  0  0  0  0
 16 18  1  0  0  0  0
  3 19  1  0  0  0  0
  4 20  1  0  0  0  0
  5 21  1  0  0  0  0
  6 22  1  0  0  0  0
  7 23  1  0  0  0  0
 10 24  1  0  0  0  0
 10 25  1  0  0  0  0
 10 26  1  0  0  0  0
 11 27  1  0  0  0  0
 11 28  1  0  0  0  0
 14 29  1  0  0  0  0
 15 30  1  0  0  0  0
 15 31  1  0  0  0  0
 16 32  1  0  0  0  0
M  END
>  <result-rank>
62

>  <similarity>
0.945

>  <query-name>
LIG_A_1101_CCCC[R*]_2

>  <query-smiles>
O=C(NCCCC)[C@@H](NC(=O)C)Cc1ccc(O)cc1

>  <source>
REALspace_2019-12

>  <similarity-descriptor>
0.924;1.000;1.000;0.959;0.959;0.0;0.0;1.000;1.000;1.000;1.000;1.000;0.0;0.0

>  <similarity-descriptor-smiles>
S1C=CC=C1;C=O;N;CC(F)F;CC(F)F;;;CC;N;C=O;C;CC;;

>  <reaction-name>
s_11a

>  <reagent1-name>
6389022

>  <reagent1-smiles>
[R1*]NCC(F)F

>  <reagent2-name>
220031

>  <reagent2-smiles>
[R1*]C(=O)CC(NC(=O)C)C=1SC=CC1

$$$$
s_22____13135904____9736332
          04022015093D 1   1.00000     0.00000     0
            
 38 38  0  0  0  0            999 V2000
    6.3333   -1.8226    1.4977 F   0  0  0  0  0  0  0  0  0  0  0  0
    5.0033   -1.8226    1.4977 C   0  0  0  0  0  0  0  0  0  0  0  0
    4.5600   -2.2515    2.6760 F   0  0  0  0  0  0  0  0  0  0  0  0
    4.4967   -0.4113    1.2488 C   0  0  0  0  0  0  0  0  0  0  0  0
    2.9767   -0.4113    1.2488 C   0  0  0  0  0  0  0  0  0  0  0  0
    2.4700    1.0000    1.0000 C   0  0  0  0  0  0  0  0  0  0  0  0
    1.0000    1.0000    1.0000 N   0  0  0  0  0  0  0  0  0  0  0  0
    0.3150    1.0000    2.1865 C   0  0  0  0  0  0  0  0  0  0  0  0
    0.9150    1.0000    3.2257 O   0  0  0  0  0  0  0  0  0  0  0  0
   -1.2050    1.0000    2.1865 C   0  0  3  0  0  0  0  0  0  0  0  0
   -1.6950    0.1091    1.1248 N   0  0  0  0  0  0  0  0  0  0  0  0
   -2.4826    0.6082    0.1211 C   0  0  0  0  0  0  0  0  0  0  0  0
   -2.7725    1.7726    0.1086 O   0  0  0  0  0  0  0  0  0  0  0  0
   -2.9893   -0.3129   -0.9767 C   0  0  0  0  0  0  0  0  0  0  0  0
   -1.7117    0.5099    3.5331 C   0  0  0  0  0  0  0  0  0  0  0  0
   -3.2332    0.5099    3.5331 C   0  0  0  0  0  0  0  0  0  0  0  0
   -4.0411   -0.5205    3.1581 N   0  0  0  0  0  0  0  0  0  0  0  0
   -5.3025   -0.1695    3.2898 C   0  0  0  0  0  0  0  0  0  0  0  0
   -5.3236    1.1139    3.7632 N   0  0  0  0  0  0  0  0  0  0  0  0
   -4.0363    1.5485    3.9121 C   0  0  0  0  0  0  0  0  0  0  0  0
    4.6700   -2.4286    0.7755 H   0  0  0  0  0  0  0  0  0  0  0  0
    4.8300   -0.0888    0.3629 H   0  0  0  0  0  0  0  0  0  0  0  0
    4.8300    0.1947    1.9711 H   0  0  0  0  0  0  0  0  0  0  0  0
    2.6433   -1.0173    0.5266 H   0  0  0  0  0  0  0  0  0  0  0  0
    2.6433   -0.7338    2.1348 H   0  0  0  0  0  0  0  0  0  0  0  0
    2.8033    1.6060    1.7222 H   0  0  0  0  0  0  0  0  0  0  0  0
    2.8033    1.3225    0.1140 H   0  0  0  0  0  0  0  0  0  0  0  0
    0.5000    1.0000    0.1340 H   0  0  0  0  0  0  0  0  0  0  0  0
   -1.5383    1.9285    2.0227 H   0  0  0  0  0  0  0  0  0  0  0  0
   -1.4534   -0.8612    1.1352 H   0  0  0  0  0  0  0  0  0  0  0  0
   -2.6560   -1.2414   -0.8130 H   0  0  0  0  0  0  0  0  0  0  0  0
   -3.9893   -0.3129   -0.9767 H   0  0  0  0  0  0  0  0  0  0  0  0
   -2.6560    0.0095   -1.8627 H   0  0  0  0  0  0  0  0  0  0  0  0
   -1.3783   -0.4186    3.6968 H   0  0  0  0  0  0  0  0  0  0  0  0
   -1.3783    1.1159    4.2553 H   0  0  0  0  0  0  0  0  0  0  0  0
   -6.0993   -0.7368    3.0821 H   0  0  0  0  0  0  0  0  0  0  0  0
   -6.1453    1.6462    3.9668 H   0  0  0  0  0  0  0  0  0  0  0  0
   -3.7408    2.4479    4.2343 H   0  0  0  0  0  0  0  0  0  0  0  0
  1  2  1  0  0  0  0
  2  3  1  0  0  0  0
  2  4  1  0  0  0  0
  4  5  1  0  0  0  0
  5  6  1  0  0  0  0
  6  7  1  0  0  0  0
  7  8  1  0  0  0  0
  8  9  2  0  0  0  0
  8 10  1  0  0  0  0
 10 11  1  0  0  0  0
 11 12  1  0  0  0  0
 12 13  2  0  0  0  0
 12 14  1  0  0  0  0
 10 15  1  0  0  0  0
 15 16  1  0  0  0  0
 16 17  1  0  0  0  0
 17 18  2  0  0  0  0
 18 19  1  0  0  0  0
 19 20  1  0  0  0  0
 16 20  2  0  0  0  0
  2 21  1  0  0  0  0
  4 22  1  0  0  0  0
  4 23  1  0  0  0  0
  5 24  1  0  0  0  0
  5 25  1  0  0  0  0
  6 26  1  0  0  0  0
  6 27  1  0  0  0  0
  7 28  1  0  0  0  0
 10 29  1  0  0  0  0
 11 30  1  0  0  0  0
 14 31  1  0  0  0  0
 14 32  1  0  0  0  0
 14 33  1  0  0  0  0
 15 34  1  0  0  0  0
 15 35  1  0  0  0  0
 18 36  1  0  0  0  0
 19 37  1  0  0  0  0
 20 38  1  0  0  0  0
M  END
>  <result-rank>
63

>  <similarity>
0.945

>  <query-name>
LIG_A_1101_CCCC[R*]_2

>  <query-smiles>
O=C(NCCCC)[C@@H](NC(=O)C)Cc1ccc(O)cc1

>  <source>
REALspace_2019-12

>  <similarity-descriptor>
0.823;1.000;1.000;1.000;1.000;0.986;0.986;1.000;1.000;1.000;1.000;1.000;0.823;0.0

>  <similarity-descriptor-smiles>
C1=CNC=N1;C=O;N;C;C;FC(F)C;FC(F)C;C;N;C=O;C;C;C1=CNC=N1;

>  <reaction-name>
s_22

>  <reagent1-name>
13135904

>  <reagent1-smiles>
[R1*]NCCCC(F)F

>  <reagent2-name>
9736332

>  <reagent2-smiles>
[R1*]C(=O)C(NC(=O)C)CC=1N=CNC1

$$$$
s_2708____6465958____909110
          04022015093D 1   1.00000     0.00000     0
            
 46 46  0  0  0  0            999 V2000
    0.4000   -0.0392    1.0000 O   0  0  0  0  0  0  0  0  0  0  0  0
    1.0000    1.0000    1.0000 C   0  0  0  0  0  0  0  0  0  0  0  0
    2.3700    1.0000    1.0000 N   0  0  0  0  0  0  0  0  0  0  0  0
    3.1050   -0.2731    1.0000 C   0  0  3  0  0  0  0  0  0  0  0  0
    4.2359   -0.2052   -0.0133 C   0  0  0  0  0  0  0  0  0  0  0  0
    3.7113    0.1457   -1.2853 O   0  0  0  0  0  0  0  0  0  0  0  0
    3.3593   -1.0335   -1.9939 C   0  0  0  0  0  0  0  0  0  0  0  0
    3.6795   -0.5264    2.3842 C   0  0  0  0  0  0  0  0  0  0  0  0
    4.2783   -1.9228    2.4366 C   0  0  0  0  0  0  0  0  0  0  0  0
    5.6544   -2.0780    2.5680 C   0  0  0  0  0  0  0  0  0  0  0  0
    6.1982   -3.3575    2.6147 C   0  0  0  0  0  0  0  0  0  0  0  0
    5.3674   -4.4699    2.5315 C   0  0  0  0  0  0  0  0  0  0  0  0
    3.9942   -4.3028    2.4009 C   0  0  0  0  0  0  0  0  0  0  0  0
    3.4382   -3.0286    2.3524 C   0  0  0  0  0  0  0  0  0  0  0  0
    0.3150    2.1865    1.0000 N   0  0  0  0  0  0  0  0  0  0  0  0
   -1.1550    2.1865    1.0000 C   0  0  0  0  0  0  0  0  0  0  0  0
   -1.6617    1.9376    2.4113 C   0  0  0  0  0  0  0  0  0  0  0  0
   -3.1817    1.9376    2.4113 C   0  0  0  0  0  0  0  0  0  0  0  0
   -3.6883    1.6888    3.8226 C   0  0  0  0  0  0  0  0  0  0  0  0
   -3.6883    3.2842    1.9212 C   0  0  0  0  0  0  0  0  0  0  0  0
    2.8700    1.8660    1.0000 H   0  0  0  0  0  0  0  0  0  0  0  0
    2.4830   -1.0171    0.7560 H   0  0  0  0  0  0  0  0  0  0  0  0
    4.9007    0.4841    0.2747 H   0  0  0  0  0  0  0  0  0  0  0  0
    4.6846   -1.0969   -0.0723 H   0  0  0  0  0  0  0  0  0  0  0  0
    2.9898   -0.7864   -2.8896 H   0  0  0  0  0  0  0  0  0  0  0  0
    4.1710   -1.6049   -2.1142 H   0  0  0  0  0  0  0  0  0  0  0  0
    2.6691   -1.5396   -1.4767 H   0  0  0  0  0  0  0  0  0  0  0  0
    4.3911    0.1489    2.5785 H   0  0  0  0  0  0  0  0  0  0  0  0
    2.9522   -0.4498    3.0662 H   0  0  0  0  0  0  0  0  0  0  0  0
    6.2483   -1.2758    2.6284 H   0  0  0  0  0  0  0  0  0  0  0  0
    7.1866   -3.4776    2.7080 H   0  0  0  0  0  0  0  0  0  0  0  0
    5.7582   -5.3897    2.5657 H   0  0  0  0  0  0  0  0  0  0  0  0
    3.4006   -5.1053    2.3413 H   0  0  0  0  0  0  0  0  0  0  0  0
    2.4498   -2.9093    2.2585 H   0  0  0  0  0  0  0  0  0  0  0  0
    0.8150    3.0525    1.0000 H   0  0  0  0  0  0  0  0  0  0  0  0
   -1.4883    1.4642    0.3940 H   0  0  0  0  0  0  0  0  0  0  0  0
   -1.4883    3.0724    0.6775 H   0  0  0  0  0  0  0  0  0  0  0  0
   -1.3283    1.0517    2.7338 H   0  0  0  0  0  0  0  0  0  0  0  0
   -1.3283    2.6598    3.0173 H   0  0  0  0  0  0  0  0  0  0  0  0
   -3.5150    1.2154    1.8053 H   0  0  0  0  0  0  0  0  0  0  0  0
   -4.6883    1.6888    3.8226 H   0  0  0  0  0  0  0  0  0  0  0  0
   -3.3550    0.8028    4.1451 H   0  0  0  0  0  0  0  0  0  0  0  0
   -3.3550    2.4110    4.4286 H   0  0  0  0  0  0  0  0  0  0  0  0
   -4.6883    3.2842    1.9212 H   0  0  0  0  0  0  0  0  0  0  0  0
   -3.3550    4.0065    2.5272 H   0  0  0  0  0  0  0  0  0  0  0  0
   -3.3550    3.4480    0.9927 H   0  0  0  0  0  0  0  0  0  0  0  0
  1  2  2  0  0  0  0
  2  3  1  0  0  0  0
  3  4  1  0  0  0  0
  4  5  1  0  0  0  0
  5  6  1  0  0  0  0
  6  7  1  0  0  0  0
  4  8  1  0  0  0  0
  8  9  1  0  0  0  0
  9 10  1  0  0  0  0
 10 11  2  0  0  0  0
 11 12  1  0  0  0  0
 12 13  2  0  0  0  0
 13 14  1  0  0  0  0
 14  9  2  0  0  0  0
  2 15  1  0  0  0  0
 15 16  1  0  0  0  0
 16 17  1  0  0  0  0
 17 18  1  0  0  0  0
 18 19  1  0  0  0  0
 18 20  1  0  0  0  0
  3 21  1  0  0  0  0
  4 22  1  0  0  0  0
  5 23  1  0  0  0  0
  5 24  1  0  0  0  0
  7 25  1  0  0  0  0
  7 26  1  0  0  0  0
  7 27  1  0  0  0  0
  8 28  1  0  0  0  0
  8 29  1  0  0  0  0
 10 30  1  0  0  0  0
 11 31  1  0  0  0  0
 12 32  1  0  0  0  0
 13 33  1  0  0  0  0
 14 34  1  0  0  0  0
 15 35  1  0  0  0  0
 16 36  1  0  0  0  0
 16 37  1  0  0  0  0
 17 38  1  0  0  0  0
 17 39  1  0  0  0  0
 18 40  1  0  0  0  0
 19 41  1  0  0  0  0
 19 42  1  0  0  0  0
 19 43  1  0  0  0  0
 20 44  1  0  0  0  0
 20 45  1  0  0  0  0
 20 46  1  0  0  0  0
M  END
>  <result-rank>
64

>  <similarity>
0.945

>  <query-name>
LIG_A_1101_CCCC[R*]_2

>  <query-smiles>
O=C(NCCCC)[C@@H](NC(=O)C)Cc1ccc(O)cc1

>  <source>
REALspace_2019-12

>  <similarity-descriptor>
0.960;0.995;1.000;1.000;1.000;0.974;0.974;0.999;0.999;0.770;0.994;1.000;0.0;0.071

>  <similarity-descriptor-smiles>
c1ccccc1;O=C;N;C;C;CC;CC;NC;NC;CO;C;C;;C

>  <reaction-name>
s_2708

>  <reagent1-name>
6465958

>  <reagent1-smiles>
[R1*]C(=O)NC(COC)Cc1ccccc1

>  <reagent2-name>
909110

>  <reagent2-smiles>
[R1*]NCCC(C)C

$$$$
s_527a____6078728____17513452
          04022015093D 1   1.00000     0.00000     0
            
 47 48  0  0  0  0            999 V2000
    0.4000    1.0000   -0.0392 O   0  0  0  0  0  0  0  0  0  0  0  0
    1.0000    1.0000    1.0000 C   0  0  0  0  0  0  0  0  0  0  0  0
    0.3150    1.0000    2.1865 N   0  0  0  0  0  0  0  0  0  0  0  0
   -1.1550    1.0000    2.1865 C   0  0  0  0  0  0  0  0  0  0  0  0
   -1.6617   -0.4331    2.1865 C   0  0  0  0  0  0  0  0  0  0  0  0
   -3.1306   -0.4331    2.1865 N   0  3  0  0  0  0  0  0  0  0  0  0
   -3.5698    0.2651    0.9771 C   0  0  0  0  0  0  0  0  0  0  0  0
   -4.9090    0.8510    1.3834 C   0  0  0  0  0  0  0  0  0  0  0  0
   -4.9171    0.9947    2.6919 C   0  0  0  0  0  0  0  0  0  0  0  0
   -3.5783    0.5075    3.2187 C   0  0  0  0  0  0  0  0  0  0  0  0
    2.5200    1.0000    1.0000 C   0  0  3  0  0  0  0  0  0  0  0  0
    3.0100    1.6930   -0.2002 N   0  0  0  0  0  0  0  0  0  0  0  0
    3.2383    3.0434   -0.1663 C   0  0  0  0  0  0  0  0  0  0  0  0
    3.0383    3.6605    0.8432 O   0  0  0  0  0  0  0  0  0  0  0  0
    3.7450    3.7599   -1.4074 C   0  0  0  0  0  0  0  0  0  0  0  0
    3.0267   -0.4331    1.0000 C   0  0  0  0  0  0  0  0  0  0  0  0
    4.5467   -0.4331    1.0000 C   0  0  0  0  0  0  0  0  0  0  0  0
    5.2311   -0.4331    2.2110 C   0  0  0  0  0  0  0  0  0  0  0  0
    6.6219   -0.4338    2.2159 C   0  0  0  0  0  0  0  0  0  0  0  0
    7.3116   -0.4351    1.0075 C   0  0  0  0  0  0  0  0  0  0  0  0
    8.7316   -0.4355    1.0077 O   0  0  0  0  0  0  0  0  0  0  0  0
    6.6320   -0.4347   -0.2063 C   0  0  0  0  0  0  0  0  0  0  0  0
    5.2412   -0.4344   -0.2053 C   0  0  0  0  0  0  0  0  0  0  0  0
   -3.5271   -1.3460    2.2832 H   0  0  0  0  0  0  0  0  0  0  0  0
    0.8150    1.0000    3.0525 H   0  0  0  0  0  0  0  0  0  0  0  0
   -1.4883    1.4714    1.3700 H   0  0  0  0  0  0  0  0  0  0  0  0
   -1.4883    1.4714    3.0030 H   0  0  0  0  0  0  0  0  0  0  0  0
   -1.3283   -0.9045    1.3700 H   0  0  0  0  0  0  0  0  0  0  0  0
   -1.3283   -0.9045    3.0030 H   0  0  0  0  0  0  0  0  0  0  0  0
   -3.6737   -0.3715    0.2130 H   0  0  0  0  0  0  0  0  0  0  0  0
   -2.9245    0.9862    0.7248 H   0  0  0  0  0  0  0  0  0  0  0  0
   -5.6573    1.0874    0.7636 H   0  0  0  0  0  0  0  0  0  0  0  0
   -5.6695    1.3592    3.2406 H   0  0  0  0  0  0  0  0  0  0  0  0
   -2.9340    1.2661    3.3156 H   0  0  0  0  0  0  0  0  0  0  0  0
   -3.6863    0.0473    4.0999 H   0  0  0  0  0  0  0  0  0  0  0  0
    2.8533    1.4714    1.8165 H   0  0  0  0  0  0  0  0  0  0  0  0
    3.1767    1.1787   -1.0415 H   0  0  0  0  0  0  0  0  0  0  0  0
    3.8561    3.1005   -2.1510 H   0  0  0  0  0  0  0  0  0  0  0  0
    3.0863    4.4614   -1.6796 H   0  0  0  0  0  0  0  0  0  0  0  0
    4.6259    4.1892   -1.2082 H   0  0  0  0  0  0  0  0  0  0  0  0
    2.6933   -0.9045    1.8165 H   0  0  0  0  0  0  0  0  0  0  0  0
    2.6933   -0.9045    0.1835 H   0  0  0  0  0  0  0  0  0  0  0  0
    4.7256   -0.4325    3.0738 H   0  0  0  0  0  0  0  0  0  0  0  0
    7.1226   -0.4335    3.0815 H   0  0  0  0  0  0  0  0  0  0  0  0
    9.2317   -0.4364    0.1417 H   0  0  0  0  0  0  0  0  0  0  0  0
    7.1374   -0.4347   -1.0692 H   0  0  0  0  0  0  0  0  0  0  0  0
    4.7405   -0.4351   -1.0710 H   0  0  0  0  0  0  0  0  0  0  0  0
  1  2  2  0  0  0  0
  2  3  1  0  0  0  0
  3  4  1  0  0  0  0
  4  5  1  0  0  0  0
  5  6  1  0  0  0  0
  6  7  1  0  0  0  0
  7  8  1  0  0  0  0
  8  9  2  0  0  0  0
  9 10  1  0  0  0  0
 10  6  1  0  0  0  0
  2 11  1  0  0  0  0
 11 12  1  0  0  0  0
 12 13  1  0  0  0  0
 13 14  2  0  0  0  0
 13 15  1  0  0  0  0
 11 16  1  0  0  0  0
 16 17  1  0  0  0  0
 17 18  1  0  0  0  0
 18 19  2  0  0  0  0
 19 20  1  0  0  0  0
 20 21  1  0  0  0  0
 20 22  2  0  0  0  0
 22 23  1  0  0  0  0
 23 17  2  0  0  0  0
  6 24  1  0  0  0  0
  3 25  1  0  0  0  0
  4 26  1  0  0  0  0
  4 27  1  0  0  0  0
  5 28  1  0  0  0  0
  5 29  1  0  0  0  0
  7 30  1  0  0  0  0
  7 31  1  0  0  0  0
  8 32  1  0  0  0  0
  9 33  1  0  0  0  0
 10 34  1  0  0  0  0
 10 35  1  0  0  0  0
 11 36  1  0  0  0  0
 12 37  1  0  0  0  0
 15 38  1  0  0  0  0
 15 39  1  0  0  0  0
 15 40  1  0  0  0  0
 16 41  1  0  0  0  0
 16 42  1  0  0  0  0
 18 43  1  0  0  0  0
 19 44  1  0  0  0  0
 21 45  1  0  0  0  0
 22 46  1  0  0  0  0
 23 47  1  0  0  0  0
M  CHG  1   6   1
M  END
>  <result-rank>
65

>  <similarity>
0.945

>  <query-name>
LIG_A_1101_CCCC[R*]_2

>  <query-smiles>
O=C(NCCCC)[C@@H](NC(=O)C)Cc1ccc(O)cc1

>  <source>
REALspace_2019-12

>  <similarity-descriptor>
1.000;1.000;1.000;0.997;0.997;0.0;0.0;1.000;1.000;1.000;1.000;1.000;1.000;0.083

>  <similarity-descriptor-smiles>
c1ccccc1;O=C;N;CC;CC;;;C;N;C=O;C;C;O;[NH+]1CC=CC1

>  <reaction-name>
s_527a

>  <reagent1-name>
6078728

>  <reagent1-smiles>
[R1*]NCCN1CC=CC1

>  <reagent2-name>
17513452

>  <reagent2-smiles>
[R1*]C(=O)C(NC(=O)C)Cc1ccc(O)cc1

$$$$
s_22____10390876____107332
          04022015093D 1   1.00000     0.00000     0
            
 42 42  0  0  0  0            999 V2000
    2.2958   -3.1092   -4.3208 Cl  0  0  0  0  0  0  0  0  0  0  0  0
    2.5117   -1.7775   -3.1598 C   0  0  0  0  0  0  0  0  0  0  0  0
    3.2657   -1.9786   -2.0090 C   0  0  0  0  0  0  0  0  0  0  0  0
    3.4364   -0.9406   -1.0986 C   0  0  0  0  0  0  0  0  0  0  0  0
    2.8459    0.2921   -1.3561 C   0  0  0  0  0  0  0  0  0  0  0  0
    2.0917    0.4935   -2.5066 C   0  0  0  0  0  0  0  0  0  0  0  0
    1.9209   -0.5447   -3.4172 C   0  0  0  0  0  0  0  0  0  0  0  0
    3.0267    1.4309   -0.3667 C   0  0  3  0  0  0  0  0  0  0  0  0
    4.4521    1.7778   -0.2739 N   0  0  0  0  0  0  0  0  0  0  0  0
    4.8720    3.0415   -0.5957 C   0  0  0  0  0  0  0  0  0  0  0  0
    4.0761    3.8653   -0.9534 O   0  0  0  0  0  0  0  0  0  0  0  0
    6.3460    3.4001   -0.4997 C   0  0  0  0  0  0  0  0  0  0  0  0
    2.5200    1.0000    1.0000 C   0  0  0  0  0  0  0  0  0  0  0  0
    1.0000    1.0000    1.0000 C   0  0  0  0  0  0  0  0  0  0  0  0
    0.4000    1.0000   -0.0392 O   0  0  0  0  0  0  0  0  0  0  0  0
    0.3150    1.0000    2.1865 N   0  0  0  0  0  0  0  0  0  0  0  0
   -1.1550    1.0000    2.1865 C   0  0  3  0  0  0  0  0  0  0  0  0
   -1.6617    2.2411    2.9030 C   0  0  0  0  0  0  0  0  0  0  0  0
   -0.8819    3.0310    3.3590 O   0  0  0  0  0  0  0  0  0  0  0  0
   -3.0086    2.4579    3.0282 N   0  0  0  0  0  0  0  0  0  0  0  0
   -1.6617   -0.2411    2.9030 C   0  0  0  0  0  0  0  0  0  0  0  0
   -1.1550   -0.2411    4.3361 C   0  0  0  0  0  0  0  0  0  0  0  0
    3.6854   -2.8696   -1.8357 H   0  0  0  0  0  0  0  0  0  0  0  0
    3.9772   -1.0791   -0.2689 H   0  0  0  0  0  0  0  0  0  0  0  0
    1.6719    1.3845   -2.6797 H   0  0  0  0  0  0  0  0  0  0  0  0
    1.3799   -0.4062   -4.2468 H   0  0  0  0  0  0  0  0  0  0  0  0
    2.5092    2.2281   -0.6779 H   0  0  0  0  0  0  0  0  0  0  0  0
    5.1154    1.0913    0.0242 H   0  0  0  0  0  0  0  0  0  0  0  0
    6.8634    2.6030   -0.1885 H   0  0  0  0  0  0  0  0  0  0  0  0
    6.6793    3.6836   -1.3989 H   0  0  0  0  0  0  0  0  0  0  0  0
    6.4649    4.1497    0.1514 H   0  0  0  0  0  0  0  0  0  0  0  0
    2.8533    0.0795    1.2041 H   0  0  0  0  0  0  0  0  0  0  0  0
    2.8533    1.6370    1.6951 H   0  0  0  0  0  0  0  0  0  0  0  0
    0.8150    1.0000    3.0525 H   0  0  0  0  0  0  0  0  0  0  0  0
   -1.4883    1.0000    1.2436 H   0  0  0  0  0  0  0  0  0  0  0  0
   -3.6584    1.7996    2.6481 H   0  0  0  0  0  0  0  0  0  0  0  0
   -3.3419    3.2744    3.4996 H   0  0  0  0  0  0  0  0  0  0  0  0
   -1.3283   -1.0576    2.4316 H   0  0  0  0  0  0  0  0  0  0  0  0
   -2.6617   -0.2411    2.9030 H   0  0  0  0  0  0  0  0  0  0  0  0
   -1.4883   -1.0576    4.8075 H   0  0  0  0  0  0  0  0  0  0  0  0
   -0.1550   -0.2411    4.3361 H   0  0  0  0  0  0  0  0  0  0  0  0
   -1.4883    0.5754    4.8075 H   0  0  0  0  0  0  0  0  0  0  0  0
  1  2  1  0  0  0  0
  2  3  1  0  0  0  0
  3  4  2  0  0  0  0
  4  5  1  0  0  0  0
  5  6  2  0  0  0  0
  6  7  1  0  0  0  0
  7  2  2  0  0  0  0
  5  8  1  0  0  0  0
  8  9  1  0  0  0  0
  9 10  1  0  0  0  0
 10 11  2  0  0  0  0
 10 12  1  0  0  0  0
  8 13  1  0  0  0  0
 13 14  1  0  0  0  0
 14 15  2  0  0  0  0
 14 16  1  0  0  0  0
 16 17  1  0  0  0  0
 17 18  1  0  0  0  0
 18 19  2  0  0  0  0
 18 20  1  0  0  0  0
 17 21  1  0  0  0  0
 21 22  1  0  0  0  0
  3 23  1  0  0  0  0
  4 24  1  0  0  0  0
  6 25  1  0  0  0  0
  7 26  1  0  0  0  0
  8 27  1  0  0  0  0
  9 28  1  0  0  0  0
 12 29  1  0  0  0  0
 12 30  1  0  0  0  0
 12 31  1  0  0  0  0
 13 32  1  0  0  0  0
 13 33  1  0  0  0  0
 16 34  1  0  0  0  0
 17 35  1  0  0  0  0
 20 36  1  0  0  0  0
 20 37  1  0  0  0  0
 21 38  1  0  0  0  0
 21 39  1  0  0  0  0
 22 40  1  0  0  0  0
 22 41  1  0  0  0  0
 22 42  1  0  0  0  0
M  END
>  <result-rank>
66

>  <similarity>
0.944

>  <query-name>
LIG_A_1101_CCCC[R*]_2

>  <query-smiles>
O=C(NCCCC)[C@@H](NC(=O)C)Cc1ccc(O)cc1

>  <source>
REALspace_2019-12

>  <similarity-descriptor>
0.968;1.000;1.000;0.969;0.969;0.949;0.0;1.000;1.000;1.000;1.000;1.000;0.0;0.154

>  <similarity-descriptor-smiles>
Clc1ccccc1;C=O;N;CC;CC;C;;CC;N;C=O;C;CC;;C=O.N

>  <reaction-name>
s_22

>  <reagent1-name>
10390876

>  <reagent1-smiles>
[R1*]NC(C(=O)N)CC

>  <reagent2-name>
107332

>  <reagent2-smiles>
[R1*]C(=O)CC(NC(=O)C)c1ccc(Cl)cc1

$$$$
s_271949____10838282____14933200
          04022015093D 1   1.00000     0.00000     0
            
 39 39  0  0  0  0            999 V2000
    5.0823    0.3566   -0.9036 F   0  0  0  0  0  0  0  0  0  0  0  0
    3.8402    0.1514   -1.3325 C   0  0  0  0  0  0  0  0  0  0  0  0
    3.8733   -0.3414   -2.5673 F   0  0  0  0  0  0  0  0  0  0  0  0
    3.1428   -0.8363   -0.4113 C   0  0  3  0  0  0  0  0  0  0  0  0
    3.1050   -0.2731    1.0000 C   0  0  0  0  0  0  0  0  0  0  0  0
    2.3700    1.0000    1.0000 N   0  0  0  0  0  0  0  0  0  0  0  0
    1.0000    1.0000    1.0000 C   0  0  0  0  0  0  0  0  0  0  0  0
    0.4000   -0.0392    1.0000 O   0  0  0  0  0  0  0  0  0  0  0  0
    0.2400    2.3164    1.0000 C   0  0  0  0  0  0  0  0  0  0  0  0
    0.2478    3.0137    1.9766 O   0  0  0  0  0  0  0  0  0  0  0  0
   -0.4539    2.7067   -0.1149 N   0  0  0  0  0  0  0  0  0  0  0  0
   -1.1889    3.9797   -0.1149 C   0  0  0  0  0  0  0  0  0  0  0  0
   -0.3674    5.0391   -0.8315 C   0  0  0  0  0  0  0  0  0  0  0  0
   -0.5219    5.2133   -2.2028 C   0  0  0  0  0  0  0  0  0  0  0  0
    0.2270    6.1819   -2.8626 C   0  0  0  0  0  0  0  0  0  0  0  0
    1.1221    6.9655   -2.1410 C   0  0  0  0  0  0  0  0  0  0  0  0
    1.8513    7.9064   -2.7774 O   0  0  0  0  0  0  0  0  0  0  0  0
    1.2807    6.7951   -0.7695 C   0  0  0  0  0  0  0  0  0  0  0  0
    0.5289    5.8253   -0.1148 C   0  0  0  0  0  0  0  0  0  0  0  0
   -0.4635    1.8525   -1.3112 C   0  0  0  0  0  0  0  0  0  0  0  0
    3.9028   -2.1526   -0.4113 C   0  0  0  0  0  0  0  0  0  0  0  0
    3.3402    1.0174   -1.3325 H   0  0  0  0  0  0  0  0  0  0  0  0
    2.2089   -0.9906   -0.7338 H   0  0  0  0  0  0  0  0  0  0  0  0
    2.6462   -0.9228    1.6060 H   0  0  0  0  0  0  0  0  0  0  0  0
    4.0389   -0.1188    1.3225 H   0  0  0  0  0  0  0  0  0  0  0  0
    2.8700    1.8660    1.0000 H   0  0  0  0  0  0  0  0  0  0  0  0
   -1.3556    4.2684    0.8279 H   0  0  0  0  0  0  0  0  0  0  0  0
   -2.0627    3.8602   -0.5863 H   0  0  0  0  0  0  0  0  0  0  0  0
   -1.1684    4.6449   -2.7118 H   0  0  0  0  0  0  0  0  0  0  0  0
    0.1230    6.3142   -3.8483 H   0  0  0  0  0  0  0  0  0  0  0  0
    2.4959    8.4721   -2.2630 H   0  0  0  0  0  0  0  0  0  0  0  0
    1.9275    7.3630   -0.2604 H   0  0  0  0  0  0  0  0  0  0  0  0
    0.6326    5.6933    0.8710 H   0  0  0  0  0  0  0  0  0  0  0  0
   -1.0136    2.2852   -2.0254 H   0  0  0  0  0  0  0  0  0  0  0  0
    0.4727    1.7291   -1.6402 H   0  0  0  0  0  0  0  0  0  0  0  0
   -0.8562    0.9619   -1.0817 H   0  0  0  0  0  0  0  0  0  0  0  0
    3.4440   -2.8024    0.1947 H   0  0  0  0  0  0  0  0  0  0  0  0
    3.9277   -2.5232   -1.3398 H   0  0  0  0  0  0  0  0  0  0  0  0
    4.8367   -1.9983   -0.0888 H   0  0  0  0  0  0  0  0  0  0  0  0
  1  2  1  0  0  0  0
  2  3  1  0  0  0  0
  2  4  1  0  0  0  0
  4  5  1  0  0  0  0
  5  6  1  0  0  0  0
  6  7  1  0  0  0  0
  7  8  2  0  0  0  0
  7  9  1  0  0  0  0
  9 10  2  0  0  0  0
  9 11  1  0  0  0  0
 11 12  1  0  0  0  0
 12 13  1  0  0  0  0
 13 14  1  0  0  0  0
 14 15  2  0  0  0  0
 15 16  1  0  0  0  0
 16 17  1  0  0  0  0
 16 18  2  0  0  0  0
 18 19  1  0  0  0  0
 19 13  2  0  0  0  0
 11 20  1  0  0  0  0
  4 21  1  0  0  0  0
  2 22  1  0  0  0  0
  4 23  1  0  0  0  0
  5 24  1  0  0  0  0
  5 25  1  0  0  0  0
  6 26  1  0  0  0  0
 12 27  1  0  0  0  0
 12 28  1  0  0  0  0
 14 29  1  0  0  0  0
 15 30  1  0  0  0  0
 17 31  1  0  0  0  0
 18 32  1  0  0  0  0
 19 33  1  0  0  0  0
 20 34  1  0  0  0  0
 20 35  1  0  0  0  0
 20 36  1  0  0  0  0
 21 37  1  0  0  0  0
 21 38  1  0  0  0  0
 21 39  1  0  0  0  0
M  END
>  <result-rank>
67

>  <similarity>
0.944

>  <query-name>
LIG_A_1101_CCCC[R*]_2

>  <query-smiles>
O=C(NCCCC)[C@@H](NC(=O)C)Cc1ccc(O)cc1

>  <source>
REALspace_2019-12

>  <similarity-descriptor>
1.000;0.999;1.000;1.000;0.982;0.982;1.000;0.768;0.768;0.768;0.0;0.969;1.000;0.083

>  <similarity-descriptor-smiles>
c1ccccc1;C=O;N;C;FC(F)C;FC(F)C;C;C=O;C=O;C=O;;NC;O;C

>  <reaction-name>
s_271949

>  <reagent1-name>
10838282

>  <reagent1-smiles>
[R1*]C(=O)C(=O)N(Cc1ccc(O)cc1)C

>  <reagent2-name>
14933200

>  <reagent2-smiles>
[R1*]NCC(C(F)F)C

$$$$
s_22____11406706____17513450
          04022015093D 1   1.00000     0.00000     0
            
 44 46  0  0  0  0            999 V2000
   -1.0213    2.0766    0.4260 O   0  0  0  0  0  0  0  0  0  0  0  0
    0.1224    1.8776    0.1224 C   0  0  0  0  0  0  0  0  0  0  0  0
    0.6373    2.4413   -1.0152 N   0  0  0  0  0  0  0  0  0  0  0  0
   -0.2106    3.2891   -1.8630 C   0  0  3  0  0  0  0  0  0  0  0  0
   -0.3308    2.7292   -3.2614 C   0  0  0  0  0  0  0  0  0  0  0  0
   -0.7466    3.8995   -4.1211 C   0  0  3  0  0  0  0  0  0  0  0  0
   -0.2819    5.1223   -3.3796 C   0  0  3  0  0  0  0  0  0  0  0  0
    0.4024    4.6535   -2.1102 C   0  0  0  0  0  0  0  0  0  0  0  0
   -1.7221    4.9822   -3.7641 C   0  0  0  0  0  0  0  0  0  0  0  0
    1.0000    1.0000    1.0000 C   0  0  3  0  0  0  0  0  0  0  0  0
    1.8487    0.1513    0.1513 N   0  0  0  0  0  0  0  0  0  0  0  0
    1.7598   -1.2129    0.2402 C   0  0  0  0  0  0  0  0  0  0  0  0
    0.9891   -1.7150    1.0109 O   0  0  0  0  0  0  0  0  0  0  0  0
    2.6374   -2.0905   -0.6374 C   0  0  0  0  0  0  0  0  0  0  0  0
    1.8776    1.8776    1.8776 C   0  0  0  0  0  0  0  0  0  0  0  0
    1.0000    2.7552    2.7552 C   0  0  0  0  0  0  0  0  0  0  0  0
    0.6049    2.2940    4.0066 C   0  0  0  0  0  0  0  0  0  0  0  0
   -0.1975    3.0939    4.8134 C   0  0  0  0  0  0  0  0  0  0  0  0
   -0.5947    4.3470    4.3576 C   0  0  0  0  0  0  0  0  0  0  0  0
   -1.3737    5.1264    5.1372 O   0  0  0  0  0  0  0  0  0  0  0  0
   -0.2026    4.8128    3.1068 C   0  0  0  0  0  0  0  0  0  0  0  0
    0.6001    4.0090    2.3044 C   0  0  0  0  0  0  0  0  0  0  0  0
    1.5904    2.2754   -1.2682 H   0  0  0  0  0  0  0  0  0  0  0  0
   -1.1173    3.3885   -1.4530 H   0  0  0  0  0  0  0  0  0  0  0  0
   -1.0227    2.0079   -3.2923 H   0  0  0  0  0  0  0  0  0  0  0  0
    0.5471    2.3623   -3.5691 H   0  0  0  0  0  0  0  0  0  0  0  0
   -0.4852    3.8478   -5.0850 H   0  0  0  0  0  0  0  0  0  0  0  0
    0.2411    5.7763   -3.9263 H   0  0  0  0  0  0  0  0  0  0  0  0
    1.3912    4.5828   -2.2420 H   0  0  0  0  0  0  0  0  0  0  0  0
    0.2110    5.2746   -1.3502 H   0  0  0  0  0  0  0  0  0  0  0  0
   -2.4135    4.8194   -3.0602 H   0  0  0  0  0  0  0  0  0  0  0  0
   -2.1067    5.5642   -4.4807 H   0  0  0  0  0  0  0  0  0  0  0  0
    0.4226    0.4226    1.5774 H   0  0  0  0  0  0  0  0  0  0  0  0
    2.4909    0.5697   -0.4909 H   0  0  0  0  0  0  0  0  0  0  0  0
    3.2147   -1.5131   -1.2147 H   0  0  0  0  0  0  0  0  0  0  0  0
    3.2147   -2.6678   -0.0600 H   0  0  0  0  0  0  0  0  0  0  0  0
    2.0600   -2.6678   -1.2147 H   0  0  0  0  0  0  0  0  0  0  0  0
    2.4549    1.3002    2.4549 H   0  0  0  0  0  0  0  0  0  0  0  0
    2.4549    2.4549    1.3002 H   0  0  0  0  0  0  0  0  0  0  0  0
    0.8963    1.3918    4.3246 H   0  0  0  0  0  0  0  0  0  0  0  0
   -0.4868    2.7706    5.7144 H   0  0  0  0  0  0  0  0  0  0  0  0
   -1.6617    6.0278    4.8140 H   0  0  0  0  0  0  0  0  0  0  0  0
   -0.4944    5.7147    2.7884 H   0  0  0  0  0  0  0  0  0  0  0  0
    0.8898    4.3323    1.4035 H   0  0  0  0  0  0  0  0  0  0  0  0
  1  2  2  0  0  0  0
  2  3  1  0  0  0  0
  3  4  1  0  0  0  0
  4  5  1  0  0  0  0
  5  6  1  0  0  0  0
  6  7  1  0  0  0  0
  7  8  1  0  0  0  0
  8  4  1  0  0  0  0
  7  9  1  0  0  0  0
  9  6  1  0  0  0  0
  2 10  1  0  0  0  0
 10 11  1  0  0  0  0
 11 12  1  0  0  0  0
 12 13  2  0  0  0  0
 12 14  1  0  0  0  0
 10 15  1  0  0  0  0
 15 16  1  0  0  0  0
 16 17  1  0  0  0  0
 17 18  2  0  0  0  0
 18 19  1  0  0  0  0
 19 20  1  0  0  0  0
 19 21  2  0  0  0  0
 21 22  1  0  0  0  0
 22 16  2  0  0  0  0
  3 23  1  0  0  0  0
  4 24  1  0  0  0  0
  5 25  1  0  0  0  0
  5 26  1  0  0  0  0
  6 27  1  0  0  0  0
  7 28  1  0  0  0  0
  8 29  1  0  0  0  0
  8 30  1  0  0  0  0
  9 31  1  0  0  0  0
  9 32  1  0  0  0  0
 10 33  1  0  0  0  0
 11 34  1  0  0  0  0
 14 35  1  0  0  0  0
 14 36  1  0  0  0  0
 14 37  1  0  0  0  0
 15 38  1  0  0  0  0
 15 39  1  0  0  0  0
 17 40  1  0  0  0  0
 18 41  1  0  0  0  0
 20 42  1  0  0  0  0
 21 43  1  0  0  0  0
 22 44  1  0  0  0  0
M  END
>  <result-rank>
68

>  <similarity>
0.944

>  <query-name>
LIG_A_1101_CCCC[R*]_2

>  <query-smiles>
O=C(NCCCC)[C@@H](NC(=O)C)Cc1ccc(O)cc1

>  <source>
REALspace_2019-12

>  <similarity-descriptor>
1.000;1.000;1.000;0.792;0.792;0.792;0.792;1.000;1.000;1.000;1.000;1.000;1.000;0.091

>  <similarity-descriptor-smiles>
c1ccccc1;O=C;N;C1CCCC1;C1CCCC1;C1CCCC1;C1CCCC1;C;N;C=O;C;C;O;C1CC1

>  <reaction-name>
s_22

>  <reagent1-name>
11406706

>  <reagent1-smiles>
[R1*]NC1CC2C(C1)C2

>  <reagent2-name>
17513450

>  <reagent2-smiles>
[R1*]C(=O)C(NC(=O)C)Cc1ccc(O)cc1

$$$$
s_527a____10430816____220034
          04022015093D 1   1.00000     0.00000     0
            
 47 47  0  0  0  0            999 V2000
   -0.7699    3.2599   -2.0040 S   0  0  0  0  0  0  0  0  0  0  0  0
   -1.2694    2.0213   -0.9504 C   0  0  0  0  0  0  0  0  0  0  0  0
   -1.7320    0.9976   -1.7170 C   0  0  0  0  0  0  0  0  0  0  0  0
   -1.6697    1.2728   -3.1112 C   0  0  0  0  0  0  0  0  0  0  0  0
   -1.1642    2.4867   -3.4688 C   0  0  0  0  0  0  0  0  0  0  0  0
   -1.1970    2.0718    0.5691 C   0  0  3  0  0  0  0  0  0  0  0  0
   -2.0494    3.1622    1.0643 N   0  0  0  0  0  0  0  0  0  0  0  0
   -3.0899    2.8872    1.9120 C   0  0  0  0  0  0  0  0  0  0  0  0
   -3.3055    1.7562    2.2502 O   0  0  0  0  0  0  0  0  0  0  0  0
   -3.9714    4.0147    2.4241 C   0  0  0  0  0  0  0  0  0  0  0  0
    0.2400    2.3164    1.0000 C   0  0  0  0  0  0  0  0  0  0  0  0
    1.0000    1.0000    1.0000 C   0  0  0  0  0  0  0  0  0  0  0  0
    0.4000   -0.0392    1.0000 O   0  0  0  0  0  0  0  0  0  0  0  0
    2.3700    1.0000    1.0000 N   0  0  0  0  0  0  0  0  0  0  0  0
    3.1050   -0.2731    1.0000 C   0  0  0  0  0  0  0  0  0  0  0  0
    4.5994    0.0047    1.0000 C   0  0  3  0  0  0  0  0  0  0  0  0
    5.3594   -1.3117    1.0000 C   0  0  0  0  0  0  0  0  0  0  0  0
    5.0043   -2.0825    2.2002 N   0  3  0  0  0  0  0  0  0  0  0  0
    5.7393   -3.3556    2.2002 C   0  0  0  0  0  0  0  0  0  0  0  0
    5.3594   -1.3117    3.4005 C   0  0  0  0  0  0  0  0  0  0  0  0
    4.9666    0.8017   -0.2411 C   0  0  0  0  0  0  0  0  0  0  0  0
    4.0211   -2.2652    2.2002 H   0  0  0  0  0  0  0  0  0  0  0  0
   -2.0803    0.1397   -1.3394 H   0  0  0  0  0  0  0  0  0  0  0  0
   -1.9804    0.6104   -3.7929 H   0  0  0  0  0  0  0  0  0  0  0  0
   -1.0492    2.8467   -4.3946 H   0  0  0  0  0  0  0  0  0  0  0  0
   -1.5149    1.2022    0.9470 H   0  0  0  0  0  0  0  0  0  0  0  0
   -1.8698    4.1047    0.7825 H   0  0  0  0  0  0  0  0  0  0  0  0
   -3.6535    4.8842    2.0462 H   0  0  0  0  0  0  0  0  0  0  0  0
   -4.9167    3.8538    2.1406 H   0  0  0  0  0  0  0  0  0  0  0  0
   -3.9238    4.0478    3.4224 H   0  0  0  0  0  0  0  0  0  0  0  0
    0.6753    2.9526    0.3630 H   0  0  0  0  0  0  0  0  0  0  0  0
    0.2501    2.7071    1.9205 H   0  0  0  0  0  0  0  0  0  0  0  0
    2.8700    1.8660    1.0000 H   0  0  0  0  0  0  0  0  0  0  0  0
    2.8634   -0.7974    0.1835 H   0  0  0  0  0  0  0  0  0  0  0  0
    2.8634   -0.7974    1.8165 H   0  0  0  0  0  0  0  0  0  0  0  0
    4.8410    0.5291    1.8165 H   0  0  0  0  0  0  0  0  0  0  0  0
    5.1178   -1.8360    0.1835 H   0  0  0  0  0  0  0  0  0  0  0  0
    6.3426   -1.1289    1.0000 H   0  0  0  0  0  0  0  0  0  0  0  0
    5.4977   -3.8799    3.0167 H   0  0  0  0  0  0  0  0  0  0  0  0
    5.4977   -3.8799    1.3838 H   0  0  0  0  0  0  0  0  0  0  0  0
    6.7224   -3.1728    2.2002 H   0  0  0  0  0  0  0  0  0  0  0  0
    5.1178   -1.8360    4.2170 H   0  0  0  0  0  0  0  0  0  0  0  0
    6.3426   -1.1289    3.4005 H   0  0  0  0  0  0  0  0  0  0  0  0
    4.8594   -0.4456    3.4005 H   0  0  0  0  0  0  0  0  0  0  0  0
    4.4666    1.6678   -0.2411 H   0  0  0  0  0  0  0  0  0  0  0  0
    5.9498    0.9845   -0.2411 H   0  0  0  0  0  0  0  0  0  0  0  0
    4.7250    0.2774   -1.0576 H   0  0  0  0  0  0  0  0  0  0  0  0
  1  2  1  0  0  0  0
  2  3  2  0  0  0  0
  3  4  1  0  0  0  0
  4  5  2  0  0  0  0
  5  1  1  0  0  0  0
  2  6  1  0  0  0  0
  6  7  1  0  0  0  0
  7  8  1  0  0  0  0
  8  9  2  0  0  0  0
  8 10  1  0  0  0  0
  6 11  1  0  0  0  0
 11 12  1  0  0  0  0
 12 13  2  0  0  0  0
 12 14  1  0  0  0  0
 14 15  1  0  0  0  0
 15 16  1  0  0  0  0
 16 17  1  0  0  0  0
 17 18  1  0  0  0  0
 18 19  1  0  0  0  0
 18 20  1  0  0  0  0
 16 21  1  0  0  0  0
 18 22  1  0  0  0  0
  3 23  1  0  0  0  0
  4 24  1  0  0  0  0
  5 25  1  0  0  0  0
  6 26  1  0  0  0  0
  7 27  1  0  0  0  0
 10 28  1  0  0  0  0
 10 29  1  0  0  0  0
 10 30  1  0  0  0  0
 11 31  1  0  0  0  0
 11 32  1  0  0  0  0
 14 33  1  0  0  0  0
 15 34  1  0  0  0  0
 15 35  1  0  0  0  0
 16 36  1  0  0  0  0
 17 37  1  0  0  0  0
 17 38  1  0  0  0  0
 19 39  1  0  0  0  0
 19 40  1  0  0  0  0
 19 41  1  0  0  0  0
 20 42  1  0  0  0  0
 20 43  1  0  0  0  0
 20 44  1  0  0  0  0
 21 45  1  0  0  0  0
 21 46  1  0  0  0  0
 21 47  1  0  0  0  0
M  CHG  1  18   1
M  END
>  <result-rank>
69

>  <similarity>
0.944

>  <query-name>
LIG_A_1101_CCCC[R*]_2

>  <query-smiles>
O=C(NCCCC)[C@@H](NC(=O)C)Cc1ccc(O)cc1

>  <source>
REALspace_2019-12

>  <similarity-descriptor>
0.924;1.000;1.000;1.000;0.998;0.998;0.956;1.000;1.000;1.000;1.000;1.000;0.0;0.200

>  <similarity-descriptor-smiles>
S1C=CC=C1;C=O;N;C;CC;CC;C;CC;N;C=O;C;CC;;[NH+].C.C

>  <reaction-name>
s_527a

>  <reagent1-name>
10430816

>  <reagent1-smiles>
[R1*]NCC(CN(C)C)C

>  <reagent2-name>
220034

>  <reagent2-smiles>
[R1*]C(=O)CC(NC(=O)C)C=1SC=CC1

$$$$
s_22____15424994____17064022
          04022015093D 1   1.00000     0.00000     0
            
 53 54  0  0  0  0            999 V2000
    2.2201   -0.4934   -0.8115 O   0  0  0  0  0  0  0  0  0  0  0  0
    2.9767   -0.0133   -0.0133 C   0  0  0  0  0  0  0  0  0  0  0  0
    4.2971   -0.3786   -0.0154 N   0  0  0  0  0  0  0  0  0  0  0  0
    5.1766    0.0343    1.0903 C   0  0  0  0  0  0  0  0  0  0  0  0
    5.8991   -1.1542    1.6756 C   0  0  0  0  0  0  0  0  0  0  0  0
    7.0847   -0.2255    1.8034 C   0  0  0  0  0  0  0  0  0  0  0  0
    8.1410   -0.1245    2.5874 C   0  0  0  0  0  0  0  0  0  0  0  0
    6.5257    0.5150    0.6118 C   0  0  0  0  0  0  0  0  0  0  0  0
    4.8355   -1.1828   -1.1219 C   0  0  0  0  0  0  0  0  0  0  0  0
    2.4700    1.0000    1.0000 C   0  0  3  0  0  0  0  0  0  0  0  0
    1.0000    1.0000    1.0000 N   0  0  0  0  0  0  0  0  0  0  0  0
    0.3150    1.0000    2.1865 C   0  0  0  0  0  0  0  0  0  0  0  0
    0.9150    1.0000    3.2257 O   0  0  0  0  0  0  0  0  0  0  0  0
   -1.2050    1.0000    2.1865 C   0  0  3  0  0  0  0  0  0  0  0  0
   -1.7117   -0.2411    1.4699 C   0  0  0  0  0  0  0  0  0  0  0  0
   -3.2317   -0.2411    1.4699 C   0  0  0  0  0  0  0  0  0  0  0  0
   -1.7117    1.0000    3.6195 C   0  0  0  0  0  0  0  0  0  0  0  0
    2.9767    2.3842    0.6291 C   0  0  0  0  0  0  0  0  0  0  0  0
    3.1456    3.2166    1.8897 C   0  0  0  0  0  0  0  0  0  0  0  0
    4.3633    3.2014    2.5618 C   0  0  0  0  0  0  0  0  0  0  0  0
    4.5227    3.9620    3.7153 C   0  0  0  0  0  0  0  0  0  0  0  0
    3.4605    4.7297    4.1823 C   0  0  0  0  0  0  0  0  0  0  0  0
    3.6107    5.4691    5.3016 O   0  0  0  0  0  0  0  0  0  0  0  0
    2.2404    4.7481    3.5142 C   0  0  0  0  0  0  0  0  0  0  0  0
    2.0867    3.9860    2.3610 C   0  0  0  0  0  0  0  0  0  0  0  0
    4.7410    0.6285    1.7665 H   0  0  0  0  0  0  0  0  0  0  0  0
    5.5291   -1.4901    2.5418 H   0  0  0  0  0  0  0  0  0  0  0  0
    6.0285   -1.9221    1.0483 H   0  0  0  0  0  0  0  0  0  0  0  0
    8.7976    0.6169    2.4487 H   0  0  0  0  0  0  0  0  0  0  0  0
    8.2851   -0.7893    3.3204 H   0  0  0  0  0  0  0  0  0  0  0  0
    6.8102    0.1600   -0.2787 H   0  0  0  0  0  0  0  0  0  0  0  0
    6.6533    1.5066    0.6317 H   0  0  0  0  0  0  0  0  0  0  0  0
    5.8075   -1.3576   -0.9647 H   0  0  0  0  0  0  0  0  0  0  0  0
    4.3443   -2.0523   -1.1717 H   0  0  0  0  0  0  0  0  0  0  0  0
    4.7211   -0.6855   -1.9819 H   0  0  0  0  0  0  0  0  0  0  0  0
    2.8033    0.7560    1.9107 H   0  0  0  0  0  0  0  0  0  0  0  0
    0.5000    1.0000    0.1340 H   0  0  0  0  0  0  0  0  0  0  0  0
   -1.5383    1.8165    1.7151 H   0  0  0  0  0  0  0  0  0  0  0  0
   -1.3783   -1.0576    1.9413 H   0  0  0  0  0  0  0  0  0  0  0  0
   -1.3783   -0.2411    0.5271 H   0  0  0  0  0  0  0  0  0  0  0  0
   -3.5650   -1.0576    0.9985 H   0  0  0  0  0  0  0  0  0  0  0  0
   -3.5650   -0.2411    2.4127 H   0  0  0  0  0  0  0  0  0  0  0  0
   -3.5650    0.5754    0.9985 H   0  0  0  0  0  0  0  0  0  0  0  0
   -2.7117    1.0000    3.6195 H   0  0  0  0  0  0  0  0  0  0  0  0
   -1.3783    0.1835    4.0909 H   0  0  0  0  0  0  0  0  0  0  0  0
   -1.3783    1.8165    4.0909 H   0  0  0  0  0  0  0  0  0  0  0  0
    3.8576    2.3029    0.1629 H   0  0  0  0  0  0  0  0  0  0  0  0
    2.3180    2.8287    0.0220 H   0  0  0  0  0  0  0  0  0  0  0  0
    5.1205    2.6464    2.2173 H   0  0  0  0  0  0  0  0  0  0  0  0
    5.3944    3.9572    4.2053 H   0  0  0  0  0  0  0  0  0  0  0  0
    2.8501    6.0224    5.6411 H   0  0  0  0  0  0  0  0  0  0  0  0
    1.4831    5.3027    3.8589 H   0  0  0  0  0  0  0  0  0  0  0  0
    1.2152    3.9911    1.8707 H   0  0  0  0  0  0  0  0  0  0  0  0
  1  2  2  0  0  0  0
  2  3  1  0  0  0  0
  3  4  1  0  0  0  0
  4  5  1  0  0  0  0
  5  6  1  0  0  0  0
  6  7  2  0  0  0  0
  6  8  1  0  0  0  0
  8  4  1  0  0  0  0
  3  9  1  0  0  0  0
  2 10  1  0  0  0  0
 10 11  1  0  0  0  0
 11 12  1  0  0  0  0
 12 13  2  0  0  0  0
 12 14  1  0  0  0  0
 14 15  1  0  0  0  0
 15 16  1  0  0  0  0
 14 17  1  0  0  0  0
 10 18  1  0  0  0  0
 18 19  1  0  0  0  0
 19 20  1  0  0  0  0
 20 21  2  0  0  0  0
 21 22  1  0  0  0  0
 22 23  1  0  0  0  0
 22 24  2  0  0  0  0
 24 25  1  0  0  0  0
 25 19  2  0  0  0  0
  4 26  1  0  0  0  0
  5 27  1  0  0  0  0
  5 28  1  0  0  0  0
  7 29  1  0  0  0  0
  7 30  1  0  0  0  0
  8 31  1  0  0  0  0
  8 32  1  0  0  0  0
  9 33  1  0  0  0  0
  9 34  1  0  0  0  0
  9 35  1  0  0  0  0
 10 36  1  0  0  0  0
 11 37  1  0  0  0  0
 14 38  1  0  0  0  0
 15 39  1  0  0  0  0
 15 40  1  0  0  0  0
 16 41  1  0  0  0  0
 16 42  1  0  0  0  0
 16 43  1  0  0  0  0
 17 44  1  0  0  0  0
 17 45  1  0  0  0  0
 17 46  1  0  0  0  0
 18 47  1  0  0  0  0
 18 48  1  0  0  0  0
 20 49  1  0  0  0  0
 21 50  1  0  0  0  0
 23 51  1  0  0  0  0
 24 52  1  0  0  0  0
 25 53  1  0  0  0  0
M  END
>  <result-rank>
70

>  <similarity>
0.944

>  <query-name>
LIG_A_1101_CCCC[R*]_2

>  <query-smiles>
O=C(NCCCC)[C@@H](NC(=O)C)Cc1ccc(O)cc1

>  <source>
REALspace_2019-12

>  <similarity-descriptor>
1.000;0.852;0.852;0.998;0.998;1.000;1.000;1.000;1.000;1.000;0.977;1.000;1.000;0.133

>  <similarity-descriptor-smiles>
c1ccccc1;C=O;C=O;CC;CC;C;C;CN;CN;O=C;NC;C;O;C1CCC1.C

>  <reaction-name>
s_22

>  <reagent1-name>
15424994

>  <reagent1-smiles>
[R1*]N(C1CC(=C)C1)C

>  <reagent2-name>
17064022

>  <reagent2-smiles>
[R1*]C(=O)C(NC(=O)C(CC)C)Cc1ccc(O)cc1

$$$$
s_22____2391588____3192126
          04022015093D 1   1.00000     0.00000     0
            
 51 51  0  0  0  0            999 V2000
   -1.9669    0.1034   -2.0258 F   0  0  0  0  0  0  0  0  0  0  0  0
   -0.8625   -0.4438   -1.5260 C   0  0  0  0  0  0  0  0  0  0  0  0
   -0.6201   -1.5964   -2.1439 F   0  0  0  0  0  0  0  0  0  0  0  0
    0.3103    0.5000   -1.7358 C   0  0  0  0  0  0  0  0  0  0  0  0
    1.5310   -0.1048   -1.1834 N   0  0  0  0  0  0  0  0  0  0  0  0
    1.8776    0.1224    0.1224 C   0  0  0  0  0  0  0  0  0  0  0  0
    2.8740   -0.3713    0.5734 O   0  0  0  0  0  0  0  0  0  0  0  0
    1.0000    1.0000    1.0000 C   0  0  0  0  0  0  0  0  0  0  0  0
    1.8776    1.8776    1.8776 C   0  0  3  0  0  0  0  0  0  0  0  0
    1.0674    2.4534    2.9606 N   0  0  0  0  0  0  0  0  0  0  0  0
    1.3859    2.1924    4.2673 C   0  0  0  0  0  0  0  0  0  0  0  0
    2.3262    1.4938    4.5277 O   0  0  0  0  0  0  0  0  0  0  0  0
    0.5482    2.7878    5.3872 C   0  0  0  0  0  0  0  0  0  0  0  0
    2.4731    2.9978    1.0396 C   0  0  0  0  0  0  0  0  0  0  0  0
    3.8214    3.3181    1.1641 C   0  0  0  0  0  0  0  0  0  0  0  0
    4.6149    2.6448    2.0245 O   0  0  0  0  0  0  0  0  0  0  0  0
    6.0253    2.7953    1.9559 C   0  0  0  0  0  0  0  0  0  0  0  0
    6.6791    1.9361    3.0259 C   0  0  0  0  0  0  0  0  0  0  0  0
    4.3664    4.3434    0.3975 C   0  0  0  0  0  0  0  0  0  0  0  0
    3.5630    5.0478   -0.4940 C   0  0  0  0  0  0  0  0  0  0  0  0
    2.2150    4.7267   -0.6186 C   0  0  0  0  0  0  0  0  0  0  0  0
    1.6704    3.7014    0.1478 C   0  0  0  0  0  0  0  0  0  0  0  0
    2.3797   -0.9535   -2.0321 C   0  0  0  0  0  0  0  0  0  0  0  0
    3.4243   -0.0937   -2.7248 C   0  0  0  0  0  0  0  0  0  0  0  0
    4.3019   -0.9713   -3.6024 C   0  0  0  0  0  0  0  0  0  0  0  0
   -0.9860   -0.6097   -0.5476 H   0  0  0  0  0  0  0  0  0  0  0  0
    0.4339    0.6659   -2.7142 H   0  0  0  0  0  0  0  0  0  0  0  0
    0.1281    1.3666   -1.2712 H   0  0  0  0  0  0  0  0  0  0  0  0
    0.4226    0.4226    1.5774 H   0  0  0  0  0  0  0  0  0  0  0  0
    0.4226    1.5774    0.4226 H   0  0  0  0  0  0  0  0  0  0  0  0
    2.6144    1.3265    2.2693 H   0  0  0  0  0  0  0  0  0  0  0  0
    0.2838    3.0355    2.7436 H   0  0  0  0  0  0  0  0  0  0  0  0
   -0.1886    3.3389    4.9955 H   0  0  0  0  0  0  0  0  0  0  0  0
    0.1565    2.0510    5.9383 H   0  0  0  0  0  0  0  0  0  0  0  0
    1.1256    3.3651    5.9646 H   0  0  0  0  0  0  0  0  0  0  0  0
    6.2658    3.7543    2.1055 H   0  0  0  0  0  0  0  0  0  0  0  0
    6.3477    2.5074    1.0542 H   0  0  0  0  0  0  0  0  0  0  0  0
    7.6723    2.0421    2.9775 H   0  0  0  0  0  0  0  0  0  0  0  0
    6.3567    2.2240    3.9276 H   0  0  0  0  0  0  0  0  0  0  0  0
    6.4386    0.9771    2.8763 H   0  0  0  0  0  0  0  0  0  0  0  0
    5.3353    4.5740    0.4871 H   0  0  0  0  0  0  0  0  0  0  0  0
    3.9545    5.7847   -1.0450 H   0  0  0  0  0  0  0  0  0  0  0  0
    1.6376    5.2329   -1.2591 H   0  0  0  0  0  0  0  0  0  0  0  0
    0.7017    3.4702    0.0576 H   0  0  0  0  0  0  0  0  0  0  0  0
    1.8140   -1.4093   -2.7193 H   0  0  0  0  0  0  0  0  0  0  0  0
    2.8354   -1.6408   -1.4664 H   0  0  0  0  0  0  0  0  0  0  0  0
    3.9900    0.3620   -2.0375 H   0  0  0  0  0  0  0  0  0  0  0  0
    2.9686    0.5935   -3.2905 H   0  0  0  0  0  0  0  0  0  0  0  0
    4.9892   -0.4057   -4.0581 H   0  0  0  0  0  0  0  0  0  0  0  0
    4.7576   -1.6586   -3.0367 H   0  0  0  0  0  0  0  0  0  0  0  0
    3.7362   -1.4271   -4.2896 H   0  0  0  0  0  0  0  0  0  0  0  0
  1  2  1  0  0  0  0
  2  3  1  0  0  0  0
  2  4  1  0  0  0  0
  4  5  1  0  0  0  0
  5  6  1  0  0  0  0
  6  7  2  0  0  0  0
  6  8  1  0  0  0  0
  8  9  1  0  0  0  0
  9 10  1  0  0  0  0
 10 11  1  0  0  0  0
 11 12  2  0  0  0  0
 11 13  1  0  0  0  0
  9 14  1  0  0  0  0
 14 15  1  0  0  0  0
 15 16  1  0  0  0  0
 16 17  1  0  0  0  0
 17 18  1  0  0  0  0
 15 19  2  0  0  0  0
 19 20  1  0  0  0  0
 20 21  2  0  0  0  0
 21 22  1  0  0  0  0
 22 14  2  0  0  0  0
  5 23  1  0  0  0  0
 23 24  1  0  0  0  0
 24 25  1  0  0  0  0
  2 26  1  0  0  0  0
  4 27  1  0  0  0  0
  4 28  1  0  0  0  0
  8 29  1  0  0  0  0
  8 30  1  0  0  0  0
  9 31  1  0  0  0  0
 10 32  1  0  0  0  0
 13 33  1  0  0  0  0
 13 34  1  0  0  0  0
 13 35  1  0  0  0  0
 17 36  1  0  0  0  0
 17 37  1  0  0  0  0
 18 38  1  0  0  0  0
 18 39  1  0  0  0  0
 18 40  1  0  0  0  0
 19 41  1  0  0  0  0
 20 42  1  0  0  0  0
 21 43  1  0  0  0  0
 22 44  1  0  0  0  0
 23 45  1  0  0  0  0
 23 46  1  0  0  0  0
 24 47  1  0  0  0  0
 24 48  1  0  0  0  0
 25 49  1  0  0  0  0
 25 50  1  0  0  0  0
 25 51  1  0  0  0  0
M  END
>  <result-rank>
71

>  <similarity>
0.944

>  <query-name>
LIG_A_1101_CCCC[R*]_2

>  <query-smiles>
O=C(NCCCC)[C@@H](NC(=O)C)Cc1ccc(O)cc1

>  <source>
REALspace_2019-12

>  <similarity-descriptor>
1.000;0.852;0.852;0.987;0.987;0.983;0.983;1.000;1.000;1.000;1.000;1.000;0.704;0.188

>  <similarity-descriptor-smiles>
c1ccccc1;C=O;C=O;NCC;NCC;FC(F)C;FC(F)C;CC;N;C=O;C;CC;O;C.C.C

>  <reaction-name>
s_22

>  <reagent1-name>
2391588

>  <reagent1-smiles>
[R1*]N(CC(F)F)CCC

>  <reagent2-name>
3192126

>  <reagent2-smiles>
[R1*]C(=O)CC(NC(=O)C)c1c(OCC)cccc1

$$$$
s_2430a____12915848____12527170
          04022015093D 1   1.00000     0.00000     0
            
 49 49  0  0  0  0            999 V2000
   -1.8992    3.3270    3.4696 F   0  0  0  0  0  0  0  0  0  0  0  0
   -2.6639    2.2411    3.5400 C   0  0  0  0  0  0  0  0  0  0  0  0
   -3.5281    2.2411    2.5291 F   0  0  0  0  0  0  0  0  0  0  0  0
   -1.7900    1.0000    3.4595 C   0  0  3  0  0  0  0  0  0  0  0  0
   -1.0550    1.0000    2.1865 N   0  0  0  0  0  0  0  0  0  0  0  0
    0.3150    1.0000    2.1865 C   0  0  0  0  0  0  0  0  0  0  0  0
    0.9150    1.0000    3.2257 O   0  0  0  0  0  0  0  0  0  0  0  0
    1.0000    1.0000    1.0000 N   0  0  0  0  0  0  0  0  0  0  0  0
    2.4700    1.0000    1.0000 C   0  0  3  0  0  0  0  0  0  0  0  0
    2.9767   -0.0133   -0.0133 C   0  0  0  0  0  0  0  0  0  0  0  0
    2.2201   -0.4934   -0.8115 O   0  0  0  0  0  0  0  0  0  0  0  0
    4.2971   -0.3786   -0.0154 N   0  0  0  0  0  0  0  0  0  0  0  0
    4.8891   -0.9885   -1.2147 C   0  0  0  0  0  0  0  0  0  0  0  0
    5.4520    0.1015   -2.1122 C   0  0  0  0  0  0  0  0  0  0  0  0
    5.1219   -0.1605    1.1817 C   0  0  0  0  0  0  0  0  0  0  0  0
    5.1725   -1.4393    2.0019 C   0  0  0  0  0  0  0  0  0  0  0  0
    2.9767    2.3842    0.6291 C   0  0  0  0  0  0  0  0  0  0  0  0
    3.1456    3.2167    1.8900 C   0  0  0  0  0  0  0  0  0  0  0  0
    2.0829    3.9831    2.3572 C   0  0  0  0  0  0  0  0  0  0  0  0
    2.2420    4.7440    3.5108 C   0  0  0  0  0  0  0  0  0  0  0  0
    3.4564    4.7338    4.1888 C   0  0  0  0  0  0  0  0  0  0  0  0
    4.5109    3.9641    3.7131 C   0  0  0  0  0  0  0  0  0  0  0  0
    4.3646    3.1994    2.5603 C   0  0  0  0  0  0  0  0  0  0  0  0
   -2.6639   -0.2411    3.5400 C   0  0  0  0  0  0  0  0  0  0  0  0
   -3.1639    2.2411    4.4061 H   0  0  0  0  0  0  0  0  0  0  0  0
   -1.1402    1.0000    4.2196 H   0  0  0  0  0  0  0  0  0  0  0  0
   -1.5550    1.0000    1.3204 H   0  0  0  0  0  0  0  0  0  0  0  0
    0.5000    1.0000    0.1340 H   0  0  0  0  0  0  0  0  0  0  0  0
    2.8033    0.7560    1.9107 H   0  0  0  0  0  0  0  0  0  0  0  0
    4.1865   -1.4987   -1.7106 H   0  0  0  0  0  0  0  0  0  0  0  0
    5.6241   -1.6102   -0.9443 H   0  0  0  0  0  0  0  0  0  0  0  0
    5.8548   -0.3134   -2.9281 H   0  0  0  0  0  0  0  0  0  0  0  0
    4.7170    0.7233   -2.3826 H   0  0  0  0  0  0  0  0  0  0  0  0
    6.1547    0.6118   -1.6163 H   0  0  0  0  0  0  0  0  0  0  0  0
    4.7231    0.5730    1.7322 H   0  0  0  0  0  0  0  0  0  0  0  0
    6.0484    0.0956    0.9061 H   0  0  0  0  0  0  0  0  0  0  0  0
    5.7336   -1.2909    2.8163 H   0  0  0  0  0  0  0  0  0  0  0  0
    4.2460   -1.6953    2.2776 H   0  0  0  0  0  0  0  0  0  0  0  0
    5.5712   -2.1728    1.4515 H   0  0  0  0  0  0  0  0  0  0  0  0
    3.8576    2.3029    0.1629 H   0  0  0  0  0  0  0  0  0  0  0  0
    2.3180    2.8287    0.0220 H   0  0  0  0  0  0  0  0  0  0  0  0
    1.2110    3.9870    1.8674 H   0  0  0  0  0  0  0  0  0  0  0  0
    1.4832    5.2984    3.8526 H   0  0  0  0  0  0  0  0  0  0  0  0
    3.5707    5.2803    5.0184 H   0  0  0  0  0  0  0  0  0  0  0  0
    5.3823    3.9598    4.2036 H   0  0  0  0  0  0  0  0  0  0  0  0
    5.1240    2.6457    2.2187 H   0  0  0  0  0  0  0  0  0  0  0  0
   -3.1639   -0.2411    4.4061 H   0  0  0  0  0  0  0  0  0  0  0  0
   -3.3137   -0.2411    2.7800 H   0  0  0  0  0  0  0  0  0  0  0  0
   -2.0890   -1.0576    3.4871 H   0  0  0  0  0  0  0  0  0  0  0  0
  1  2  1  0  0  0  0
  2  3  1  0  0  0  0
  2  4  1  0  0  0  0
  4  5  1  0  0  0  0
  5  6  1  0  0  0  0
  6  7  2  0  0  0  0
  6  8  1  0  0  0  0
  8  9  1  0  0  0  0
  9 10  1  0  0  0  0
 10 11  2  0  0  0  0
 10 12  1  0  0  0  0
 12 13  1  0  0  0  0
 13 14  1  0  0  0  0
 12 15  1  0  0  0  0
 15 16  1  0  0  0  0
  9 17  1  0  0  0  0
 17 18  1  0  0  0  0
 18 19  1  0  0  0  0
 19 20  2  0  0  0  0
 20 21  1  0  0  0  0
 21 22  2  0  0  0  0
 22 23  1  0  0  0  0
 23 18  2  0  0  0  0
  4 24  1  0  0  0  0
  2 25  1  0  0  0  0
  4 26  1  0  0  0  0
  5 27  1  0  0  0  0
  8 28  1  0  0  0  0
  9 29  1  0  0  0  0
 13 30  1  0  0  0  0
 13 31  1  0  0  0  0
 14 32  1  0  0  0  0
 14 33  1  0  0  0  0
 14 34  1  0  0  0  0
 15 35  1  0  0  0  0
 15 36  1  0  0  0  0
 16 37  1  0  0  0  0
 16 38  1  0  0  0  0
 16 39  1  0  0  0  0
 17 40  1  0  0  0  0
 17 41  1  0  0  0  0
 19 42  1  0  0  0  0
 20 43  1  0  0  0  0
 21 44  1  0  0  0  0
 22 45  1  0  0  0  0
 23 46  1  0  0  0  0
 24 47  1  0  0  0  0
 24 48  1  0  0  0  0
 24 49  1  0  0  0  0
M  END
>  <result-rank>
72

>  <similarity>
0.944

>  <query-name>
LIG_A_1101_CCCC[R*]_2

>  <query-smiles>
O=C(NCCCC)[C@@H](NC(=O)C)Cc1ccc(O)cc1

>  <source>
REALspace_2019-12

>  <similarity-descriptor>
0.960;0.995;1.000;0.982;0.982;0.949;0.0;1.000;1.000;1.000;0.981;1.000;0.0;0.200

>  <similarity-descriptor-smiles>
c1ccccc1;C=O;N;FC(F)C;FC(F)C;C;;NC;NC;C=O;NC;C;;C.C.C

>  <reaction-name>
s_2430a

>  <reagent1-name>
12915848

>  <reagent1-smiles>
[R1*]C(=O)NC(C(F)F)C

>  <reagent2-name>
12527170

>  <reagent2-smiles>
[R1*]NC(C(=O)N(CC)CC)Cc1ccccc1

$$$$
s_188690b____8331286____5367188
          04022015093D 1   1.00000     0.00000     0
            
 40 40  0  0  0  0            999 V2000
   -2.2339    2.7969   -1.1407 S   0  0  0  0  0  0  0  0  0  0  0  0
   -2.0503    1.7744    0.2062 C   0  0  0  0  0  0  0  0  0  0  0  0
   -2.7966    0.6610   -0.0241 C   0  0  0  0  0  0  0  0  0  0  0  0
   -3.4851    0.6987   -1.2682 C   0  0  0  0  0  0  0  0  0  0  0  0
   -3.2987    1.8116   -2.0321 C   0  0  0  0  0  0  0  0  0  0  0  0
   -1.1970    2.0718    1.4309 C   0  0  3  0  0  0  0  0  0  0  0  0
   -1.7151    3.2679    2.1104 N   0  0  0  0  0  0  0  0  0  0  0  0
   -2.1450    3.1860    3.4087 C   0  0  0  0  0  0  0  0  0  0  0  0
   -2.0986    2.1379    3.9911 O   0  0  0  0  0  0  0  0  0  0  0  0
   -2.6807    4.4228    4.1113 C   0  0  0  0  0  0  0  0  0  0  0  0
    0.2400    2.3164    1.0000 C   0  0  0  0  0  0  0  0  0  0  0  0
    1.0000    1.0000    1.0000 C   0  0  0  0  0  0  0  0  0  0  0  0
    0.4000   -0.0392    1.0000 O   0  0  0  0  0  0  0  0  0  0  0  0
    2.3700    1.0000    1.0000 N   0  0  0  0  0  0  0  0  0  0  0  0
    3.1050   -0.2731    1.0000 C   0  0  0  0  0  0  0  0  0  0  0  0
    4.5947    0.0020    1.1249 C   0  0  3  0  0  0  0  0  0  0  0  0
    5.3666   -1.2942    0.9389 C   0  0  0  0  0  0  0  0  0  0  0  0
    4.8158   -2.3516    1.8817 C   0  0  0  0  0  0  0  0  0  0  0  0
    4.6931   -3.4945    1.5037 O   0  5  0  0  0  0  0  0  0  0  0  0
    4.4897   -2.0406    3.0477 O   0  0  0  0  0  0  0  0  0  0  0  0
    5.0167    1.0003    0.0593 C   0  0  0  0  0  0  0  0  0  0  0  0
   -2.8554   -0.1055    0.6156 H   0  0  0  0  0  0  0  0  0  0  0  0
   -4.0747   -0.0519   -1.5666 H   0  0  0  0  0  0  0  0  0  0  0  0
   -3.7017    2.0079   -2.9261 H   0  0  0  0  0  0  0  0  0  0  0  0
   -1.2292    1.2926    2.0569 H   0  0  0  0  0  0  0  0  0  0  0  0
   -1.7538    4.1414    1.6251 H   0  0  0  0  0  0  0  0  0  0  0  0
   -2.6485    5.2020    3.4853 H   0  0  0  0  0  0  0  0  0  0  0  0
   -3.6261    4.2619    4.3948 H   0  0  0  0  0  0  0  0  0  0  0  0
   -2.1201    4.6182    4.9160 H   0  0  0  0  0  0  0  0  0  0  0  0
    0.2501    2.7071    0.0795 H   0  0  0  0  0  0  0  0  0  0  0  0
    0.6753    2.9526    1.6370 H   0  0  0  0  0  0  0  0  0  0  0  0
    2.8700    1.8660    1.0000 H   0  0  0  0  0  0  0  0  0  0  0  0
    2.9266   -0.7610    0.1455 H   0  0  0  0  0  0  0  0  0  0  0  0
    2.8033   -0.8321    1.7723 H   0  0  0  0  0  0  0  0  0  0  0  0
    4.7893    0.3788    2.0305 H   0  0  0  0  0  0  0  0  0  0  0  0
    5.2698   -1.6071   -0.0059 H   0  0  0  0  0  0  0  0  0  0  0  0
    6.3334   -1.1383    1.1411 H   0  0  0  0  0  0  0  0  0  0  0  0
    5.9967    1.1813    0.1414 H   0  0  0  0  0  0  0  0  0  0  0  0
    4.8221    0.6235   -0.8463 H   0  0  0  0  0  0  0  0  0  0  0  0
    4.5089    1.8531    0.1816 H   0  0  0  0  0  0  0  0  0  0  0  0
  1  2  1  0  0  0  0
  2  3  2  0  0  0  0
  3  4  1  0  0  0  0
  4  5  2  0  0  0  0
  5  1  1  0  0  0  0
  2  6  1  0  0  0  0
  6  7  1  0  0  0  0
  7  8  1  0  0  0  0
  8  9  2  0  0  0  0
  8 10  1  0  0  0  0
  6 11  1  0  0  0  0
 11 12  1  0  0  0  0
 12 13  2  0  0  0  0
 12 14  1  0  0  0  0
 14 15  1  0  0  0  0
 15 16  1  0  0  0  0
 16 17  1  0  0  0  0
 17 18  1  0  0  0  0
 18 19  1  0  0  0  0
 18 20  2  0  0  0  0
 16 21  1  0  0  0  0
  3 22  1  0  0  0  0
  4 23  1  0  0  0  0
  5 24  1  0  0  0  0
  6 25  1  0  0  0  0
  7 26  1  0  0  0  0
 10 27  1  0  0  0  0
 10 28  1  0  0  0  0
 10 29  1  0  0  0  0
 11 30  1  0  0  0  0
 11 31  1  0  0  0  0
 14 32  1  0  0  0  0
 15 33  1  0  0  0  0
 15 34  1  0  0  0  0
 16 35  1  0  0  0  0
 17 36  1  0  0  0  0
 17 37  1  0  0  0  0
 21 38  1  0  0  0  0
 21 39  1  0  0  0  0
 21 40  1  0  0  0  0
M  CHG  1  19  -1
M  END
>  <result-rank>
73

>  <similarity>
0.944

>  <query-name>
LIG_A_1101_CCCC[R*]_2

>  <query-smiles>
O=C(NCCCC)[C@@H](NC(=O)C)Cc1ccc(O)cc1

>  <source>
REALspace_2019-12

>  <similarity-descriptor>
0.924;1.000;1.000;1.000;0.998;0.998;0.949;1.000;1.000;1.000;1.000;1.000;0.0;0.077

>  <similarity-descriptor-smiles>
S1C=CC=C1;C=O;N;C;CC;CC;C;CC;N;C=O;C;CC;;C([O-])=O

>  <reaction-name>
s_188690b

>  <reagent1-name>
8331286

>  <reagent1-smiles>
[R1*]NCC(CC(=O)O)C

>  <reagent2-name>
5367188

>  <reagent2-smiles>
[R1*]C(=O)CC(NC(=O)C)C=1SC=CC1

$$$$
s_22____7290494____16717358
          04022015093D 1   1.00000     0.00000     0
            
 54 54  0  0  0  0            999 V2000
    5.2955    3.4039    1.7109 S   0  0  0  0  0  0  0  0  0  0  0  0
    4.0516    4.4277    0.8860 C   0  0  0  0  0  0  0  0  0  0  0  0
    3.1918    5.1204    1.9306 C   0  0  0  0  0  0  0  0  0  0  0  0
    2.4991    4.0758    2.7904 C   0  0  3  0  0  0  0  0  0  0  0  0
    1.6504    3.2271    1.9417 N   0  0  0  0  0  0  0  0  0  0  0  0
    1.8776    1.8776    1.8776 C   0  0  0  0  0  0  0  0  0  0  0  0
    2.7694    1.3883    2.5142 O   0  0  0  0  0  0  0  0  0  0  0  0
    1.0000    1.0000    1.0000 C   0  0  3  0  0  0  0  0  0  0  0  0
    0.7171    1.6971   -0.2629 N   0  0  0  0  0  0  0  0  0  0  0  0
    1.1013    1.1397   -1.4540 C   0  0  0  0  0  0  0  0  0  0  0  0
    1.6688    0.0825   -1.4663 O   0  0  0  0  0  0  0  0  0  0  0  0
    0.8088    1.8605   -2.7598 C   0  0  0  0  0  0  0  0  0  0  0  0
    1.3173    1.0624   -3.8847 N   0  0  0  0  0  0  0  0  0  0  0  0
    0.5937   -0.0036   -4.3506 C   0  0  0  0  0  0  0  0  0  0  0  0
   -0.4552   -0.2856   -3.8405 O   0  0  0  0  0  0  0  0  0  0  0  0
    1.1195   -0.8289   -5.5137 C   0  0  0  0  0  0  0  0  0  0  0  0
   -0.3059    0.7075    1.7208 C   0  0  0  0  0  0  0  0  0  0  0  0
   -1.1835   -0.1701    0.8432 C   0  0  0  0  0  0  0  0  0  0  0  0
   -1.0842   -1.5540    0.9425 C   0  0  0  0  0  0  0  0  0  0  0  0
   -1.8857   -2.3610    0.1420 C   0  0  0  0  0  0  0  0  0  0  0  0
   -2.7781   -1.7726   -0.7486 C   0  0  0  0  0  0  0  0  0  0  0  0
   -3.5577   -2.5520   -1.5276 O   0  0  0  0  0  0  0  0  0  0  0  0
   -2.8811   -0.3891   -0.8520 C   0  0  0  0  0  0  0  0  0  0  0  0
   -2.0774    0.4131   -0.0489 C   0  0  0  0  0  0  0  0  0  0  0  0
    1.6393    4.7685    3.8351 C   0  0  0  0  0  0  0  0  0  0  0  0
    2.4591    5.5883    4.6549 O   0  0  0  0  0  0  0  0  0  0  0  0
    6.3346    4.7179    2.3962 C   0  0  0  0  0  0  0  0  0  0  0  0
    3.4742    3.8504    0.3086 H   0  0  0  0  0  0  0  0  0  0  0  0
    4.5073    5.1150    0.3203 H   0  0  0  0  0  0  0  0  0  0  0  0
    3.7691    5.6978    2.5080 H   0  0  0  0  0  0  0  0  0  0  0  0
    2.5045    5.6861    1.4749 H   0  0  0  0  0  0  0  0  0  0  0  0
    3.1863    3.5101    3.2462 H   0  0  0  0  0  0  0  0  0  0  0  0
    0.9072    3.6348    1.4112 H   0  0  0  0  0  0  0  0  0  0  0  0
    1.4742    0.1409    0.8075 H   0  0  0  0  0  0  0  0  0  0  0  0
    0.2442    2.5782   -0.2526 H   0  0  0  0  0  0  0  0  0  0  0  0
   -0.1786    1.9842   -2.8583 H   0  0  0  0  0  0  0  0  0  0  0  0
    1.2578    2.7540   -2.7552 H   0  0  0  0  0  0  0  0  0  0  0  0
    2.1914    1.2974   -4.3097 H   0  0  0  0  0  0  0  0  0  0  0  0
    1.9981   -0.4584   -5.8150 H   0  0  0  0  0  0  0  0  0  0  0  0
    1.2403   -1.7776   -5.2215 H   0  0  0  0  0  0  0  0  0  0  0  0
    0.4659   -0.7936   -6.2698 H   0  0  0  0  0  0  0  0  0  0  0  0
   -0.1134    0.2333    2.5799 H   0  0  0  0  0  0  0  0  0  0  0  0
   -0.7801    1.5666    1.9133 H   0  0  0  0  0  0  0  0  0  0  0  0
   -0.4397   -1.9667    1.5862 H   0  0  0  0  0  0  0  0  0  0  0  0
   -1.8211   -3.3569    0.2061 H   0  0  0  0  0  0  0  0  0  0  0  0
   -4.2005   -2.1337   -2.1692 H   0  0  0  0  0  0  0  0  0  0  0  0
   -3.5251    0.0237   -1.4961 H   0  0  0  0  0  0  0  0  0  0  0  0
   -2.1423    1.4089   -0.1127 H   0  0  0  0  0  0  0  0  0  0  0  0
    0.9520    5.3342    3.3793 H   0  0  0  0  0  0  0  0  0  0  0  0
    1.1835    4.0812    4.4007 H   0  0  0  0  0  0  0  0  0  0  0  0
    1.8935    6.0441    5.3422 H   0  0  0  0  0  0  0  0  0  0  0  0
    7.0963    4.3116    2.9009 H   0  0  0  0  0  0  0  0  0  0  0  0
    6.6914    5.2829    1.6522 H   0  0  0  0  0  0  0  0  0  0  0  0
    5.7903    5.2853    3.0141 H   0  0  0  0  0  0  0  0  0  0  0  0
  1  2  1  0  0  0  0
  2  3  1  0  0  0  0
  3  4  1  0  0  0  0
  4  5  1  0  0  0  0
  5  6  1  0  0  0  0
  6  7  2  0  0  0  0
  6  8  1  0  0  0  0
  8  9  1  0  0  0  0
  9 10  1  0  0  0  0
 10 11  2  0  0  0  0
 10 12  1  0  0  0  0
 12 13  1  0  0  0  0
 13 14  1  0  0  0  0
 14 15  2  0  0  0  0
 14 16  1  0  0  0  0
  8 17  1  0  0  0  0
 17 18  1  0  0  0  0
 18 19  1  0  0  0  0
 19 20  2  0  0  0  0
 20 21  1  0  0  0  0
 21 22  1  0  0  0  0
 21 23  2  0  0  0  0
 23 24  1  0  0  0  0
 24 18  2  0  0  0  0
  4 25  1  0  0  0  0
 25 26  1  0  0  0  0
  1 27  1  0  0  0  0
  2 28  1  0  0  0  0
  2 29  1  0  0  0  0
  3 30  1  0  0  0  0
  3 31  1  0  0  0  0
  4 32  1  0  0  0  0
  5 33  1  0  0  0  0
  8 34  1  0  0  0  0
  9 35  1  0  0  0  0
 12 36  1  0  0  0  0
 12 37  1  0  0  0  0
 13 38  1  0  0  0  0
 16 39  1  0  0  0  0
 16 40  1  0  0  0  0
 16 41  1  0  0  0  0
 17 42  1  0  0  0  0
 17 43  1  0  0  0  0
 19 44  1  0  0  0  0
 20 45  1  0  0  0  0
 22 46  1  0  0  0  0
 23 47  1  0  0  0  0
 24 48  1  0  0  0  0
 25 49  1  0  0  0  0
 25 50  1  0  0  0  0
 26 51  1  0  0  0  0
 27 52  1  0  0  0  0
 27 53  1  0  0  0  0
 27 54  1  0  0  0  0
M  END
>  <result-rank>
74

>  <similarity>
0.943

>  <query-name>
LIG_A_1101_CCCC[R*]_2

>  <query-smiles>
O=C(NCCCC)[C@@H](NC(=O)C)Cc1ccc(O)cc1

>  <source>
REALspace_2019-12

>  <similarity-descriptor>
1.000;1.000;1.000;0.973;0.973;1.000;0.951;1.000;1.000;1.000;0.955;1.000;1.000;0.316

>  <similarity-descriptor-smiles>
c1ccccc1;C=O;N;CC;CC;C;C;C;N;C=O;C;C;O;S.N.C=O.C.O.C

>  <reaction-name>
s_22

>  <reagent1-name>
7290494

>  <reagent1-smiles>
[R1*]NC(CO)CCSC

>  <reagent2-name>
16717358

>  <reagent2-smiles>
[R1*]C(=O)C(NC(=O)CNC(=O)C)Cc1ccc(O)cc1

$$$$
s_11a____9785156____217445
          04022015093D 1   1.00000     0.00000     0
            
 41 41  0  0  0  0            999 V2000
   -4.0542   -1.1921   -2.8076 Cl  0  0  0  0  0  0  0  0  0  0  0  0
   -3.2159   -0.2328   -1.5646 C   0  0  0  0  0  0  0  0  0  0  0  0
   -2.6360    0.9843   -1.9046 C   0  0  0  0  0  0  0  0  0  0  0  0
   -1.9792    1.7369   -0.9363 C   0  0  0  0  0  0  0  0  0  0  0  0
   -1.9129    1.2566    0.3673 C   0  0  0  0  0  0  0  0  0  0  0  0
   -2.4924    0.0394    0.7077 C   0  0  0  0  0  0  0  0  0  0  0  0
   -3.1493   -0.7134   -0.2609 C   0  0  0  0  0  0  0  0  0  0  0  0
   -1.1970    2.0718    1.4309 C   0  0  3  0  0  0  0  0  0  0  0  0
   -1.8825    3.3605    1.6046 N   0  0  0  0  0  0  0  0  0  0  0  0
   -2.4074    3.6982    2.8242 C   0  0  0  0  0  0  0  0  0  0  0  0
   -2.3076    2.9420    3.7506 O   0  0  0  0  0  0  0  0  0  0  0  0
   -3.1163    5.0307    3.0038 C   0  0  0  0  0  0  0  0  0  0  0  0
    0.2400    2.3164    1.0000 C   0  0  0  0  0  0  0  0  0  0  0  0
    1.0000    1.0000    1.0000 C   0  0  0  0  0  0  0  0  0  0  0  0
    0.4000   -0.0392    1.0000 O   0  0  0  0  0  0  0  0  0  0  0  0
    2.3700    1.0000    1.0000 N   0  0  0  0  0  0  0  0  0  0  0  0
    3.1050   -0.2731    1.0000 C   0  0  0  0  0  0  0  0  0  0  0  0
    4.5994    0.0047    1.0000 C   0  0  0  0  0  0  0  0  0  0  0  0
    5.3594   -1.3117    1.0000 C   0  0  0  0  0  0  0  0  0  0  0  0
    6.8538   -1.0339    1.0000 C   0  0  0  0  0  0  0  0  0  0  0  0
    7.1751   -0.3365   -0.0859 F   0  0  0  0  0  0  0  0  0  0  0  0
    7.1751   -0.3365    2.0859 F   0  0  0  0  0  0  0  0  0  0  0  0
    7.5188   -2.1857    1.0000 F   0  0  0  0  0  0  0  0  0  0  0  0
   -2.6910    1.3188   -2.8454 H   0  0  0  0  0  0  0  0  0  0  0  0
   -1.5598    2.6129   -1.1747 H   0  0  0  0  0  0  0  0  0  0  0  0
   -2.4372   -0.2950    1.6485 H   0  0  0  0  0  0  0  0  0  0  0  0
   -3.5685   -1.5895   -0.0225 H   0  0  0  0  0  0  0  0  0  0  0  0
   -1.2048    1.5707    2.2963 H   0  0  0  0  0  0  0  0  0  0  0  0
   -1.9658    3.9906    0.8326 H   0  0  0  0  0  0  0  0  0  0  0  0
   -3.1085    5.5318    2.1384 H   0  0  0  0  0  0  0  0  0  0  0  0
   -4.0617    4.8698    3.2873 H   0  0  0  0  0  0  0  0  0  0  0  0
   -2.6451    5.5673    3.7039 H   0  0  0  0  0  0  0  0  0  0  0  0
    0.2501    2.7071    0.0795 H   0  0  0  0  0  0  0  0  0  0  0  0
    0.6753    2.9526    1.6370 H   0  0  0  0  0  0  0  0  0  0  0  0
    2.8700    1.8660    1.0000 H   0  0  0  0  0  0  0  0  0  0  0  0
    2.8634   -0.7974    0.1835 H   0  0  0  0  0  0  0  0  0  0  0  0
    2.8634   -0.7974    1.8165 H   0  0  0  0  0  0  0  0  0  0  0  0
    4.8410    0.5291    1.8165 H   0  0  0  0  0  0  0  0  0  0  0  0
    4.8410    0.5291    0.1835 H   0  0  0  0  0  0  0  0  0  0  0  0
    5.1178   -1.8360    1.8165 H   0  0  0  0  0  0  0  0  0  0  0  0
    5.1178   -1.8360    0.1835 H   0  0  0  0  0  0  0  0  0  0  0  0
  1  2  1  0  0  0  0
  2  3  1  0  0  0  0
  3  4  2  0  0  0  0
  4  5  1  0  0  0  0
  5  6  2  0  0  0  0
  6  7  1  0  0  0  0
  7  2  2  0  0  0  0
  5  8  1  0  0  0  0
  8  9  1  0  0  0  0
  9 10  1  0  0  0  0
 10 11  2  0  0  0  0
 10 12  1  0  0  0  0
  8 13  1  0  0  0  0
 13 14  1  0  0  0  0
 14 15  2  0  0  0  0
 14 16  1  0  0  0  0
 16 17  1  0  0  0  0
 17 18  1  0  0  0  0
 18 19  1  0  0  0  0
 19 20  1  0  0  0  0
 20 21  1  0  0  0  0
 20 22  1  0  0  0  0
 20 23  1  0  0  0  0
  3 24  1  0  0  0  0
  4 25  1  0  0  0  0
  6 26  1  0  0  0  0
  7 27  1  0  0  0  0
  8 28  1  0  0  0  0
  9 29  1  0  0  0  0
 12 30  1  0  0  0  0
 12 31  1  0  0  0  0
 12 32  1  0  0  0  0
 13 33  1  0  0  0  0
 13 34  1  0  0  0  0
 16 35  1  0  0  0  0
 17 36  1  0  0  0  0
 17 37  1  0  0  0  0
 18 38  1  0  0  0  0
 18 39  1  0  0  0  0
 19 40  1  0  0  0  0
 19 41  1  0  0  0  0
M  END
>  <result-rank>
75

>  <similarity>
0.943

>  <query-name>
LIG_A_1101_CCCC[R*]_2

>  <query-smiles>
O=C(NCCCC)[C@@H](NC(=O)C)Cc1ccc(O)cc1

>  <source>
REALspace_2019-12

>  <similarity-descriptor>
0.968;1.000;1.000;1.000;1.000;1.000;0.0;1.000;1.000;1.000;1.000;1.000;0.0;0.083

>  <similarity-descriptor-smiles>
Clc1ccccc1;C=O;N;C;C;C;;CC;N;C=O;C;CC;;C(F)(F)F

>  <reaction-name>
s_11a

>  <reagent1-name>
9785156

>  <reagent1-smiles>
[R1*]NCCCC(F)(F)F

>  <reagent2-name>
217445

>  <reagent2-smiles>
[R1*]C(=O)CC(NC(=O)C)c1ccc(Cl)cc1

$$$$
s_527a____7207670____220034
          04022015093D 1   1.00000     0.00000     0
            
 45 45  0  0  0  0            999 V2000
    1.7301    0.2657   -2.6418 S   0  0  0  0  0  0  0  0  0  0  0  0
    2.8456    0.2901   -1.3578 C   0  0  0  0  0  0  0  0  0  0  0  0
    3.5319   -0.8836   -1.3934 C   0  0  0  0  0  0  0  0  0  0  0  0
    3.1125   -1.7431   -2.4464 C   0  0  0  0  0  0  0  0  0  0  0  0
    2.1148   -1.2777   -3.2494 C   0  0  0  0  0  0  0  0  0  0  0  0
    3.0267    1.4309   -0.3667 C   0  0  3  0  0  0  0  0  0  0  0  0
    4.4521    1.7778   -0.2739 N   0  0  0  0  0  0  0  0  0  0  0  0
    4.8720    3.0415   -0.5957 C   0  0  0  0  0  0  0  0  0  0  0  0
    4.0761    3.8653   -0.9534 O   0  0  0  0  0  0  0  0  0  0  0  0
    6.3460    3.4001   -0.4997 C   0  0  0  0  0  0  0  0  0  0  0  0
    2.5200    1.0000    1.0000 C   0  0  0  0  0  0  0  0  0  0  0  0
    1.0000    1.0000    1.0000 C   0  0  0  0  0  0  0  0  0  0  0  0
    0.4000    1.0000   -0.0392 O   0  0  0  0  0  0  0  0  0  0  0  0
    0.3150    1.0000    2.1865 N   0  0  0  0  0  0  0  0  0  0  0  0
   -1.1550    1.0000    2.1865 C   0  0  3  0  0  0  0  0  0  0  0  0
   -1.6617    2.2411    2.9030 C   0  0  0  0  0  0  0  0  0  0  0  0
   -3.1817    2.2411    2.9030 C   0  0  0  0  0  0  0  0  0  0  0  0
   -1.1550    2.2411    4.3361 C   0  0  0  0  0  0  0  0  0  0  0  0
   -1.6617   -0.2411    2.9030 C   0  0  0  0  0  0  0  0  0  0  0  0
   -1.1550   -1.4821    2.1865 C   0  0  0  0  0  0  0  0  0  0  0  0
   -1.6283   -2.6416    2.8558 O   0  0  0  0  0  0  0  0  0  0  0  0
    4.2570   -1.1182   -0.7459 H   0  0  0  0  0  0  0  0  0  0  0  0
    3.5278   -2.6414   -2.5898 H   0  0  0  0  0  0  0  0  0  0  0  0
    1.6973   -1.7435   -4.0296 H   0  0  0  0  0  0  0  0  0  0  0  0
    2.5092    2.2281   -0.6779 H   0  0  0  0  0  0  0  0  0  0  0  0
    5.1154    1.0913    0.0242 H   0  0  0  0  0  0  0  0  0  0  0  0
    6.8634    2.6030   -0.1885 H   0  0  0  0  0  0  0  0  0  0  0  0
    6.6793    3.6836   -1.3989 H   0  0  0  0  0  0  0  0  0  0  0  0
    6.4649    4.1497    0.1514 H   0  0  0  0  0  0  0  0  0  0  0  0
    2.8533    0.0795    1.2041 H   0  0  0  0  0  0  0  0  0  0  0  0
    2.8533    1.6370    1.6951 H   0  0  0  0  0  0  0  0  0  0  0  0
    0.8150    1.0000    3.0525 H   0  0  0  0  0  0  0  0  0  0  0  0
   -1.4883    1.0000    1.2436 H   0  0  0  0  0  0  0  0  0  0  0  0
   -1.3283    3.0576    2.4316 H   0  0  0  0  0  0  0  0  0  0  0  0
   -3.5150    3.0576    3.3744 H   0  0  0  0  0  0  0  0  0  0  0  0
   -3.5150    2.2411    1.9602 H   0  0  0  0  0  0  0  0  0  0  0  0
   -3.5150    1.4246    3.3744 H   0  0  0  0  0  0  0  0  0  0  0  0
   -1.4883    3.0576    4.8075 H   0  0  0  0  0  0  0  0  0  0  0  0
   -1.4883    1.4246    4.8075 H   0  0  0  0  0  0  0  0  0  0  0  0
   -0.1550    2.2411    4.3361 H   0  0  0  0  0  0  0  0  0  0  0  0
   -2.6617   -0.2411    2.9030 H   0  0  0  0  0  0  0  0  0  0  0  0
   -1.3283   -0.2411    3.8458 H   0  0  0  0  0  0  0  0  0  0  0  0
   -1.4883   -1.4821    1.2436 H   0  0  0  0  0  0  0  0  0  0  0  0
   -0.1550   -1.4821    2.1865 H   0  0  0  0  0  0  0  0  0  0  0  0
   -1.2950   -3.4581    2.3844 H   0  0  0  0  0  0  0  0  0  0  0  0
  1  2  1  0  0  0  0
  2  3  2  0  0  0  0
  3  4  1  0  0  0  0
  4  5  2  0  0  0  0
  5  1  1  0  0  0  0
  2  6  1  0  0  0  0
  6  7  1  0  0  0  0
  7  8  1  0  0  0  0
  8  9  2  0  0  0  0
  8 10  1  0  0  0  0
  6 11  1  0  0  0  0
 11 12  1  0  0  0  0
 12 13  2  0  0  0  0
 12 14  1  0  0  0  0
 14 15  1  0  0  0  0
 15 16  1  0  0  0  0
 16 17  1  0  0  0  0
 16 18  1  0  0  0  0
 15 19  1  0  0  0  0
 19 20  1  0  0  0  0
 20 21  1  0  0  0  0
  3 22  1  0  0  0  0
  4 23  1  0  0  0  0
  5 24  1  0  0  0  0
  6 25  1  0  0  0  0
  7 26  1  0  0  0  0
 10 27  1  0  0  0  0
 10 28  1  0  0  0  0
 10 29  1  0  0  0  0
 11 30  1  0  0  0  0
 11 31  1  0  0  0  0
 14 32  1  0  0  0  0
 15 33  1  0  0  0  0
 16 34  1  0  0  0  0
 17 35  1  0  0  0  0
 17 36  1  0  0  0  0
 17 37  1  0  0  0  0
 18 38  1  0  0  0  0
 18 39  1  0  0  0  0
 18 40  1  0  0  0  0
 19 41  1  0  0  0  0
 19 42  1  0  0  0  0
 20 43  1  0  0  0  0
 20 44  1  0  0  0  0
 21 45  1  0  0  0  0
M  END
>  <result-rank>
76

>  <similarity>
0.943

>  <query-name>
LIG_A_1101_CCCC[R*]_2

>  <query-smiles>
O=C(NCCCC)[C@@H](NC(=O)C)Cc1ccc(O)cc1

>  <source>
REALspace_2019-12

>  <similarity-descriptor>
0.924;1.000;1.000;0.932;0.998;0.998;1.000;1.000;1.000;1.000;1.000;1.000;0.0;0.200

>  <similarity-descriptor-smiles>
S1C=CC=C1;C=O;N;C;CC;CC;C;CC;N;C=O;C;CC;;C.C.O

>  <reaction-name>
s_527a

>  <reagent1-name>
7207670

>  <reagent1-smiles>
[R1*]NC(C(C)C)CCO

>  <reagent2-name>
220034

>  <reagent2-smiles>
[R1*]C(=O)CC(NC(=O)C)C=1SC=CC1

$$$$
s_276750____14462982____14609688
          04022015093D 1   1.00000     0.00000     0
            
 41 41  0  0  0  0            999 V2000
   -4.0542   -1.1921   -2.8076 Cl  0  0  0  0  0  0  0  0  0  0  0  0
   -3.2159   -0.2328   -1.5646 C   0  0  0  0  0  0  0  0  0  0  0  0
   -2.6360    0.9843   -1.9046 C   0  0  0  0  0  0  0  0  0  0  0  0
   -1.9792    1.7369   -0.9363 C   0  0  0  0  0  0  0  0  0  0  0  0
   -1.9129    1.2566    0.3673 C   0  0  0  0  0  0  0  0  0  0  0  0
   -2.4924    0.0394    0.7077 C   0  0  0  0  0  0  0  0  0  0  0  0
   -3.1493   -0.7134   -0.2609 C   0  0  0  0  0  0  0  0  0  0  0  0
   -1.1970    2.0718    1.4309 C   0  0  3  0  0  0  0  0  0  0  0  0
   -1.8825    3.3605    1.6046 N   0  0  0  0  0  0  0  0  0  0  0  0
   -2.4074    3.6982    2.8242 C   0  0  0  0  0  0  0  0  0  0  0  0
   -2.3076    2.9420    3.7506 O   0  0  0  0  0  0  0  0  0  0  0  0
   -3.1163    5.0307    3.0038 C   0  0  0  0  0  0  0  0  0  0  0  0
    0.2400    2.3164    1.0000 C   0  0  0  0  0  0  0  0  0  0  0  0
    1.0000    1.0000    1.0000 C   0  0  0  0  0  0  0  0  0  0  0  0
    0.4000   -0.0392    1.0000 O   0  0  0  0  0  0  0  0  0  0  0  0
    2.3700    1.0000    1.0000 N   0  0  0  0  0  0  0  0  0  0  0  0
    3.1050   -0.2731    1.0000 C   0  0  0  0  0  0  0  0  0  0  0  0
    4.5994    0.0047    1.0000 C   0  0  0  0  0  0  0  0  0  0  0  0
    5.3594   -1.3117    1.0000 C   0  0  0  0  0  0  0  0  0  0  0  0
    7.1389   -0.9809    1.0000 S   0  0  0  0  0  0  0  0  0  0  0  0
    7.8839   -2.2713    1.0000 F   0  0  0  0  0  0  0  0  0  0  0  0
    7.4868   -0.2258   -0.1758 O   0  0  0  0  0  0  0  0  0  0  0  0
    7.4868   -0.2258    2.1758 O   0  0  0  0  0  0  0  0  0  0  0  0
   -2.6910    1.3188   -2.8454 H   0  0  0  0  0  0  0  0  0  0  0  0
   -1.5598    2.6129   -1.1747 H   0  0  0  0  0  0  0  0  0  0  0  0
   -2.4372   -0.2950    1.6485 H   0  0  0  0  0  0  0  0  0  0  0  0
   -3.5685   -1.5895   -0.0225 H   0  0  0  0  0  0  0  0  0  0  0  0
   -1.2048    1.5707    2.2963 H   0  0  0  0  0  0  0  0  0  0  0  0
   -1.9658    3.9906    0.8326 H   0  0  0  0  0  0  0  0  0  0  0  0
   -3.1085    5.5318    2.1384 H   0  0  0  0  0  0  0  0  0  0  0  0
   -4.0617    4.8698    3.2873 H   0  0  0  0  0  0  0  0  0  0  0  0
   -2.6451    5.5673    3.7039 H   0  0  0  0  0  0  0  0  0  0  0  0
    0.2501    2.7071    0.0795 H   0  0  0  0  0  0  0  0  0  0  0  0
    0.6753    2.9526    1.6370 H   0  0  0  0  0  0  0  0  0  0  0  0
    2.8700    1.8660    1.0000 H   0  0  0  0  0  0  0  0  0  0  0  0
    2.8634   -0.7974    0.1835 H   0  0  0  0  0  0  0  0  0  0  0  0
    2.8634   -0.7974    1.8165 H   0  0  0  0  0  0  0  0  0  0  0  0
    4.8410    0.5291    0.1835 H   0  0  0  0  0  0  0  0  0  0  0  0
    4.8410    0.5291    1.8165 H   0  0  0  0  0  0  0  0  0  0  0  0
    5.1178   -1.8360    1.8165 H   0  0  0  0  0  0  0  0  0  0  0  0
    5.1178   -1.8360    0.1835 H   0  0  0  0  0  0  0  0  0  0  0  0
  1  2  1  0  0  0  0
  2  3  1  0  0  0  0
  3  4  2  0  0  0  0
  4  5  1  0  0  0  0
  5  6  2  0  0  0  0
  6  7  1  0  0  0  0
  7  2  2  0  0  0  0
  5  8  1  0  0  0  0
  8  9  1  0  0  0  0
  9 10  1  0  0  0  0
 10 11  2  0  0  0  0
 10 12  1  0  0  0  0
  8 13  1  0  0  0  0
 13 14  1  0  0  0  0
 14 15  2  0  0  0  0
 14 16  1  0  0  0  0
 16 17  1  0  0  0  0
 17 18  1  0  0  0  0
 18 19  1  0  0  0  0
 19 20  1  0  0  0  0
 20 21  1  0  0  0  0
 20 22  2  0  0  0  0
 20 23  2  0  0  0  0
  3 24  1  0  0  0  0
  4 25  1  0  0  0  0
  6 26  1  0  0  0  0
  7 27  1  0  0  0  0
  8 28  1  0  0  0  0
  9 29  1  0  0  0  0
 12 30  1  0  0  0  0
 12 31  1  0  0  0  0
 12 32  1  0  0  0  0
 13 33  1  0  0  0  0
 13 34  1  0  0  0  0
 16 35  1  0  0  0  0
 17 36  1  0  0  0  0
 17 37  1  0  0  0  0
 18 38  1  0  0  0  0
 18 39  1  0  0  0  0
 19 40  1  0  0  0  0
 19 41  1  0  0  0  0
M  END
>  <result-rank>
77

>  <similarity>
0.943

>  <query-name>
LIG_A_1101_CCCC[R*]_2

>  <query-smiles>
O=C(NCCCC)[C@@H](NC(=O)C)Cc1ccc(O)cc1

>  <source>
REALspace_2019-12

>  <similarity-descriptor>
0.968;1.000;1.000;1.000;1.000;0.998;0.0;1.000;1.000;1.000;1.000;1.000;0.0;0.083

>  <similarity-descriptor-smiles>
Clc1ccccc1;C=O;N;C;C;C;;CC;N;C=O;C;CC;;S(F)(=O)=O

>  <reaction-name>
s_276750

>  <reagent1-name>
14462982

>  <reagent1-smiles>
[R1*]NCCCS(F)(=O)=O

>  <reagent2-name>
14609688

>  <reagent2-smiles>
[R1*]C(=O)CC(NC(=O)C)c1ccc(Cl)cc1

$$$$
s_22____2391588____16717358
          04022015093D 1   1.00000     0.00000     0
            
 52 52  0  0  0  0            999 V2000
    2.5439   -1.8252   -2.0602 F   0  0  0  0  0  0  0  0  0  0  0  0
    2.2110   -0.5401   -1.9802 C   0  0  0  0  0  0  0  0  0  0  0  0
    2.3440    0.0275   -3.1756 F   0  0  0  0  0  0  0  0  0  0  0  0
    0.7677   -0.4183   -1.5193 C   0  0  0  0  0  0  0  0  0  0  0  0
    0.3997    1.0022   -1.4309 N   0  0  0  0  0  0  0  0  0  0  0  0
    0.7075    1.7208   -0.3059 C   0  0  0  0  0  0  0  0  0  0  0  0
    0.7461    2.9193   -0.3513 O   0  0  0  0  0  0  0  0  0  0  0  0
    1.0000    1.0000    1.0000 C   0  0  3  0  0  0  0  0  0  0  0  0
    1.8487    1.8487    1.8487 N   0  0  0  0  0  0  0  0  0  0  0  0
    3.0831    1.4052    2.2442 C   0  0  0  0  0  0  0  0  0  0  0  0
    3.4716    0.3240    1.8978 O   0  0  0  0  0  0  0  0  0  0  0  0
    3.9607    2.2828    3.1218 C   0  0  0  0  0  0  0  0  0  0  0  0
    5.2236    1.5857    3.4047 N   0  0  0  0  0  0  0  0  0  0  0  0
    6.1783    2.1863    4.1823 C   0  0  0  0  0  0  0  0  0  0  0  0
    5.9835    3.2815    4.6325 O   0  0  0  0  0  0  0  0  0  0  0  0
    7.4841    1.4655    4.4748 C   0  0  0  0  0  0  0  0  0  0  0  0
   -0.3059    0.7075    1.7208 C   0  0  0  0  0  0  0  0  0  0  0  0
   -0.1034   -0.4483    2.6871 C   0  0  0  0  0  0  0  0  0  0  0  0
   -0.3182   -1.7513    2.2501 C   0  0  0  0  0  0  0  0  0  0  0  0
   -0.1334   -2.8121    3.1305 C   0  0  0  0  0  0  0  0  0  0  0  0
    0.2650   -2.5557    4.4386 C   0  0  0  0  0  0  0  0  0  0  0  0
    0.4451   -3.5822    5.2965 O   0  0  0  0  0  0  0  0  0  0  0  0
    0.4809   -1.2545    4.8808 C   0  0  0  0  0  0  0  0  0  0  0  0
    0.2950   -0.1975    3.9961 C   0  0  0  0  0  0  0  0  0  0  0  0
   -0.2984    1.6516   -2.5498 C   0  0  0  0  0  0  0  0  0  0  0  0
   -1.8000    1.5129   -2.3589 C   0  0  0  0  0  0  0  0  0  0  0  0
   -2.5219    2.1843   -3.5158 C   0  0  0  0  0  0  0  0  0  0  0  0
    2.8102   -0.0807   -1.3246 H   0  0  0  0  0  0  0  0  0  0  0  0
    0.1685   -0.8777   -2.1749 H   0  0  0  0  0  0  0  0  0  0  0  0
    0.6677   -0.8450   -0.6205 H   0  0  0  0  0  0  0  0  0  0  0  0
    1.4742    0.1409    0.8075 H   0  0  0  0  0  0  0  0  0  0  0  0
    1.5250    2.7498    2.1374 H   0  0  0  0  0  0  0  0  0  0  0  0
    4.1532    3.1419    2.6475 H   0  0  0  0  0  0  0  0  0  0  0  0
    3.4865    2.4753    3.9809 H   0  0  0  0  0  0  0  0  0  0  0  0
    5.3859    0.6731    3.0295 H   0  0  0  0  0  0  0  0  0  0  0  0
    7.4795    0.5720    4.0258 H   0  0  0  0  0  0  0  0  0  0  0  0
    8.2493    2.0085    4.1289 H   0  0  0  0  0  0  0  0  0  0  0  0
    7.5827    1.3418    5.4623 H   0  0  0  0  0  0  0  0  0  0  0  0
   -0.5957    1.5191    2.2280 H   0  0  0  0  0  0  0  0  0  0  0  0
   -1.0084    0.4638    1.0521 H   0  0  0  0  0  0  0  0  0  0  0  0
   -0.6041   -1.9245    1.3076 H   0  0  0  0  0  0  0  0  0  0  0  0
   -0.2858   -3.7522    2.8255 H   0  0  0  0  0  0  0  0  0  0  0  0
    0.7315   -3.4029    6.2377 H   0  0  0  0  0  0  0  0  0  0  0  0
    0.7663   -1.0811    5.8234 H   0  0  0  0  0  0  0  0  0  0  0  0
    0.4478    0.7425    4.3009 H   0  0  0  0  0  0  0  0  0  0  0  0
   -0.0298    1.2153   -3.4085 H   0  0  0  0  0  0  0  0  0  0  0  0
   -0.0541    2.6208   -2.5776 H   0  0  0  0  0  0  0  0  0  0  0  0
   -2.0686    1.9492   -1.5001 H   0  0  0  0  0  0  0  0  0  0  0  0
   -2.0444    0.5436   -2.3311 H   0  0  0  0  0  0  0  0  0  0  0  0
   -3.5098    2.0931   -3.3903 H   0  0  0  0  0  0  0  0  0  0  0  0
   -2.2776    3.1536   -3.5437 H   0  0  0  0  0  0  0  0  0  0  0  0
   -2.2533    1.7480   -4.3746 H   0  0  0  0  0  0  0  0  0  0  0  0
  1  2  1  0  0  0  0
  2  3  1  0  0  0  0
  2  4  1  0  0  0  0
  4  5  1  0  0  0  0
  5  6  1  0  0  0  0
  6  7  2  0  0  0  0
  6  8  1  0  0  0  0
  8  9  1  0  0  0  0
  9 10  1  0  0  0  0
 10 11  2  0  0  0  0
 10 12  1  0  0  0  0
 12 13  1  0  0  0  0
 13 14  1  0  0  0  0
 14 15  2  0  0  0  0
 14 16  1  0  0  0  0
  8 17  1  0  0  0  0
 17 18  1  0  0  0  0
 18 19  1  0  0  0  0
 19 20  2  0  0  0  0
 20 21  1  0  0  0  0
 21 22  1  0  0  0  0
 21 23  2  0  0  0  0
 23 24  1  0  0  0  0
 24 18  2  0  0  0  0
  5 25  1  0  0  0  0
 25 26  1  0  0  0  0
 26 27  1  0  0  0  0
  2 28  1  0  0  0  0
  4 29  1  0  0  0  0
  4 30  1  0  0  0  0
  8 31  1  0  0  0  0
  9 32  1  0  0  0  0
 12 33  1  0  0  0  0
 12 34  1  0  0  0  0
 13 35  1  0  0  0  0
 16 36  1  0  0  0  0
 16 37  1  0  0  0  0
 16 38  1  0  0  0  0
 17 39  1  0  0  0  0
 17 40  1  0  0  0  0
 19 41  1  0  0  0  0
 20 42  1  0  0  0  0
 22 43  1  0  0  0  0
 23 44  1  0  0  0  0
 24 45  1  0  0  0  0
 25 46  1  0  0  0  0
 25 47  1  0  0  0  0
 26 48  1  0  0  0  0
 26 49  1  0  0  0  0
 27 50  1  0  0  0  0
 27 51  1  0  0  0  0
 27 52  1  0  0  0  0
M  END
>  <result-rank>
78

>  <similarity>
0.943

>  <query-name>
LIG_A_1101_CCCC[R*]_2

>  <query-smiles>
O=C(NCCCC)[C@@H](NC(=O)C)Cc1ccc(O)cc1

>  <source>
REALspace_2019-12

>  <similarity-descriptor>
1.000;0.852;0.852;0.987;0.987;0.983;0.983;1.000;1.000;1.000;0.955;1.000;1.000;0.235

>  <similarity-descriptor-smiles>
c1ccccc1;C=O;C=O;NCC;NCC;FC(F)C;FC(F)C;C;N;C=O;C;C;O;N.C=O.C.C

>  <reaction-name>
s_22

>  <reagent1-name>
2391588

>  <reagent1-smiles>
[R1*]N(CC(F)F)CCC

>  <reagent2-name>
16717358

>  <reagent2-smiles>
[R1*]C(=O)C(NC(=O)CNC(=O)C)Cc1ccc(O)cc1

$$$$
s_527a____12913940____210093
          04022015093D 1   1.00000     0.00000     0
            
 46 46  0  0  0  0            999 V2000
    0.4000    1.0000   -0.0392 O   0  0  0  0  0  0  0  0  0  0  0  0
    1.0000    1.0000    1.0000 C   0  0  0  0  0  0  0  0  0  0  0  0
    0.3150    1.0000    2.1865 N   0  0  0  0  0  0  0  0  0  0  0  0
   -1.1550    1.0000    2.1865 C   0  0  3  0  0  0  0  0  0  0  0  0
   -1.6617    2.2411    2.9030 C   0  0  0  0  0  0  0  0  0  0  0  0
   -3.0817    2.2411    2.9030 O   0  0  0  0  0  0  0  0  0  0  0  0
   -1.6617   -0.2411    2.9030 C   0  0  0  0  0  0  0  0  0  0  0  0
   -1.1550   -1.4821    2.1865 C   0  0  0  0  0  0  0  0  0  0  0  0
   -0.4076   -2.3379    2.8182 C   0  0  0  0  0  0  0  0  0  0  0  0
   -1.5222   -1.7227    0.7312 C   0  0  0  0  0  0  0  0  0  0  0  0
    2.5200    1.0000    1.0000 C   0  0  0  0  0  0  0  0  0  0  0  0
    3.0267    1.4309   -0.3667 C   0  0  3  0  0  0  0  0  0  0  0  0
    4.4521    1.7778   -0.2739 N   0  0  0  0  0  0  0  0  0  0  0  0
    4.8720    3.0415   -0.5957 C   0  0  0  0  0  0  0  0  0  0  0  0
    4.0761    3.8653   -0.9534 O   0  0  0  0  0  0  0  0  0  0  0  0
    6.3460    3.4001   -0.4997 C   0  0  0  0  0  0  0  0  0  0  0  0
    2.8458    0.2914   -1.3567 C   0  0  0  0  0  0  0  0  0  0  0  0
    3.4351   -0.9427   -1.1020 C   0  0  0  0  0  0  0  0  0  0  0  0
    3.2678   -1.9825   -2.0108 C   0  0  0  0  0  0  0  0  0  0  0  0
    2.5148   -1.7844   -3.1634 C   0  0  0  0  0  0  0  0  0  0  0  0
    1.9304   -0.5477   -3.4071 C   0  0  0  0  0  0  0  0  0  0  0  0
    2.0908    0.5002   -2.5064 C   0  0  0  0  0  0  0  0  0  0  0  0
    0.8150    1.0000    3.0525 H   0  0  0  0  0  0  0  0  0  0  0  0
   -1.4883    1.0000    1.2436 H   0  0  0  0  0  0  0  0  0  0  0  0
   -1.3283    2.2411    3.8458 H   0  0  0  0  0  0  0  0  0  0  0  0
   -1.3283    3.0576    2.4316 H   0  0  0  0  0  0  0  0  0  0  0  0
   -3.4150    3.0576    3.3744 H   0  0  0  0  0  0  0  0  0  0  0  0
   -1.3283   -0.2411    3.8458 H   0  0  0  0  0  0  0  0  0  0  0  0
   -2.6617   -0.2411    2.9030 H   0  0  0  0  0  0  0  0  0  0  0  0
   -0.0743   -3.1544    2.3468 H   0  0  0  0  0  0  0  0  0  0  0  0
   -0.1660   -2.1796    3.7756 H   0  0  0  0  0  0  0  0  0  0  0  0
   -2.0971   -0.9727    0.4042 H   0  0  0  0  0  0  0  0  0  0  0  0
   -0.6889   -1.7686    0.1804 H   0  0  0  0  0  0  0  0  0  0  0  0
   -2.0222   -2.5851    0.6518 H   0  0  0  0  0  0  0  0  0  0  0  0
    2.8533    0.0795    1.2041 H   0  0  0  0  0  0  0  0  0  0  0  0
    2.8533    1.6370    1.6951 H   0  0  0  0  0  0  0  0  0  0  0  0
    2.5092    2.2281   -0.6779 H   0  0  0  0  0  0  0  0  0  0  0  0
    5.1154    1.0913    0.0242 H   0  0  0  0  0  0  0  0  0  0  0  0
    6.8634    2.6030   -0.1885 H   0  0  0  0  0  0  0  0  0  0  0  0
    6.6793    3.6836   -1.3989 H   0  0  0  0  0  0  0  0  0  0  0  0
    6.4649    4.1497    0.1514 H   0  0  0  0  0  0  0  0  0  0  0  0
    3.9750   -1.0813   -0.2717 H   0  0  0  0  0  0  0  0  0  0  0  0
    3.6890   -2.8723   -1.8355 H   0  0  0  0  0  0  0  0  0  0  0  0
    2.3940   -2.5320   -3.8164 H   0  0  0  0  0  0  0  0  0  0  0  0
    1.3899   -0.4097   -4.2371 H   0  0  0  0  0  0  0  0  0  0  0  0
    1.6698    1.3900   -2.6826 H   0  0  0  0  0  0  0  0  0  0  0  0
  1  2  2  0  0  0  0
  2  3  1  0  0  0  0
  3  4  1  0  0  0  0
  4  5  1  0  0  0  0
  5  6  1  0  0  0  0
  4  7  1  0  0  0  0
  7  8  1  0  0  0  0
  8  9  2  0  0  0  0
  8 10  1  0  0  0  0
  2 11  1  0  0  0  0
 11 12  1  0  0  0  0
 12 13  1  0  0  0  0
 13 14  1  0  0  0  0
 14 15  2  0  0  0  0
 14 16  1  0  0  0  0
 12 17  1  0  0  0  0
 17 18  1  0  0  0  0
 18 19  2  0  0  0  0
 19 20  1  0  0  0  0
 20 21  2  0  0  0  0
 21 22  1  0  0  0  0
 22 17  2  0  0  0  0
  3 23  1  0  0  0  0
  4 24  1  0  0  0  0
  5 25  1  0  0  0  0
  5 26  1  0  0  0  0
  6 27  1  0  0  0  0
  7 28  1  0  0  0  0
  7 29  1  0  0  0  0
  9 30  1  0  0  0  0
  9 31  1  0  0  0  0
 10 32  1  0  0  0  0
 10 33  1  0  0  0  0
 10 34  1  0  0  0  0
 11 35  1  0  0  0  0
 11 36  1  0  0  0  0
 12 37  1  0  0  0  0
 13 38  1  0  0  0  0
 16 39  1  0  0  0  0
 16 40  1  0  0  0  0
 16 41  1  0  0  0  0
 18 42  1  0  0  0  0
 19 43  1  0  0  0  0
 20 44  1  0  0  0  0
 21 45  1  0  0  0  0
 22 46  1  0  0  0  0
M  END
>  <result-rank>
79

>  <similarity>
0.942

>  <query-name>
LIG_A_1101_CCCC[R*]_2

>  <query-smiles>
O=C(NCCCC)[C@@H](NC(=O)C)Cc1ccc(O)cc1

>  <source>
REALspace_2019-12

>  <similarity-descriptor>
0.960;1.000;1.000;0.973;0.973;0.999;0.731;1.000;1.000;1.000;1.000;1.000;0.0;0.133

>  <similarity-descriptor-smiles>
c1ccccc1;O=C;N;CC;CC;C;CC;CC;N;C=O;C;CC;;O.C

>  <reaction-name>
s_527a

>  <reagent1-name>
12913940

>  <reagent1-smiles>
[R1*]NC(CO)CC(=C)C

>  <reagent2-name>
210093

>  <reagent2-smiles>
[R1*]C(=O)CC(NC(=O)C)c1ccccc1

$$$$
s_2708____11987194____911554
          04022015093D 1   1.00000     0.00000     0
            
 53 53  0  0  0  0            999 V2000
    6.9950    1.0230    1.6053 F   0  0  0  0  0  0  0  0  0  0  0  0
    6.5517    0.0624    2.4113 C   0  0  0  0  0  0  0  0  0  0  0  0
    5.0317    0.0624    2.4113 C   0  0  0  0  0  0  0  0  0  0  0  0
    4.5250   -0.1865    1.0000 C   0  0  0  0  0  0  0  0  0  0  0  0
    3.0550   -0.1865    1.0000 N   0  0  0  0  0  0  0  0  0  0  0  0
    2.3700    1.0000    1.0000 C   0  0  0  0  0  0  0  0  0  0  0  0
    2.9700    2.0392    1.0000 O   0  0  0  0  0  0  0  0  0  0  0  0
    1.0000    1.0000    1.0000 N   0  0  0  0  0  0  0  0  0  0  0  0
    0.2650    2.2731    1.0000 C   0  0  0  0  0  0  0  0  0  0  0  0
    0.0116    2.7120   -0.4335 C   0  0  0  0  0  0  0  0  0  0  0  0
   -1.1480    2.3102   -1.0892 C   0  0  0  0  0  0  0  0  0  0  0  0
   -2.0582    1.5301   -0.4677 O   0  0  0  0  0  0  0  0  0  0  0  0
   -3.2360    1.1297   -1.1524 C   0  0  0  0  0  0  0  0  0  0  0  0
   -4.0854    0.2642   -0.2361 C   0  0  0  0  0  0  0  0  0  0  0  0
   -1.3798    2.7116   -2.4011 C   0  0  0  0  0  0  0  0  0  0  0  0
   -0.4522    3.5153   -3.0568 C   0  0  0  0  0  0  0  0  0  0  0  0
    0.7068    3.9174   -2.4005 C   0  0  0  0  0  0  0  0  0  0  0  0
    0.9382    3.5161   -1.0888 C   0  0  0  0  0  0  0  0  0  0  0  0
    0.2650   -0.2731    1.0000 C   0  0  0  0  0  0  0  0  0  0  0  0
    0.0117   -0.7118    2.4331 C   0  0  3  0  0  0  0  0  0  0  0  0
    1.2524   -0.8816    3.1025 O   0  0  0  0  0  0  0  0  0  0  0  0
   -0.7483   -2.0282    2.4331 C   0  0  0  0  0  0  0  0  0  0  0  0
    7.0583    0.3112    3.8226 C   0  0  0  0  0  0  0  0  0  0  0  0
    7.0583   -1.2842    1.9212 C   0  0  0  0  0  0  0  0  0  0  0  0
    4.6983    0.9483    2.7338 H   0  0  0  0  0  0  0  0  0  0  0  0
    4.6983   -0.6598    3.0173 H   0  0  0  0  0  0  0  0  0  0  0  0
    4.8583    0.5358    0.3940 H   0  0  0  0  0  0  0  0  0  0  0  0
    4.8583   -1.0724    0.6775 H   0  0  0  0  0  0  0  0  0  0  0  0
    2.5550   -1.0525    1.0000 H   0  0  0  0  0  0  0  0  0  0  0  0
    0.8054    2.9700    1.4714 H   0  0  0  0  0  0  0  0  0  0  0  0
   -0.6088    2.1535    1.4714 H   0  0  0  0  0  0  0  0  0  0  0  0
   -2.9862    0.6070   -1.9676 H   0  0  0  0  0  0  0  0  0  0  0  0
   -3.7563    1.9399   -1.4225 H   0  0  0  0  0  0  0  0  0  0  0  0
   -4.9148   -0.0178   -0.7183 H   0  0  0  0  0  0  0  0  0  0  0  0
   -3.5651   -0.5460    0.0340 H   0  0  0  0  0  0  0  0  0  0  0  0
   -4.3352    0.7869    0.5790 H   0  0  0  0  0  0  0  0  0  0  0  0
   -2.2129    2.4226   -2.8727 H   0  0  0  0  0  0  0  0  0  0  0  0
   -0.6187    3.8039   -3.9997 H   0  0  0  0  0  0  0  0  0  0  0  0
    1.3735    4.4949   -2.8717 H   0  0  0  0  0  0  0  0  0  0  0  0
    1.7709    3.8058   -0.6169 H   0  0  0  0  0  0  0  0  0  0  0  0
    0.8054   -0.9700    0.5286 H   0  0  0  0  0  0  0  0  0  0  0  0
   -0.6088   -0.1535    0.5286 H   0  0  0  0  0  0  0  0  0  0  0  0
   -0.5288   -0.0149    2.9045 H   0  0  0  0  0  0  0  0  0  0  0  0
    1.0858   -1.1703    4.0453 H   0  0  0  0  0  0  0  0  0  0  0  0
   -1.6221   -1.9086    1.9617 H   0  0  0  0  0  0  0  0  0  0  0  0
   -0.2079   -2.7251    1.9617 H   0  0  0  0  0  0  0  0  0  0  0  0
   -0.9150   -2.3169    3.3759 H   0  0  0  0  0  0  0  0  0  0  0  0
    6.7250   -0.4110    4.4286 H   0  0  0  0  0  0  0  0  0  0  0  0
    8.0583    0.3112    3.8226 H   0  0  0  0  0  0  0  0  0  0  0  0
    6.7250    1.1972    4.1451 H   0  0  0  0  0  0  0  0  0  0  0  0
    6.7250   -2.0065    2.5272 H   0  0  0  0  0  0  0  0  0  0  0  0
    6.7250   -1.4480    0.9927 H   0  0  0  0  0  0  0  0  0  0  0  0
    8.0583   -1.2842    1.9212 H   0  0  0  0  0  0  0  0  0  0  0  0
  1  2  1  0  0  0  0
  2  3  1  0  0  0  0
  3  4  1  0  0  0  0
  4  5  1  0  0  0  0
  5  6  1  0  0  0  0
  6  7  2  0  0  0  0
  6  8  1  0  0  0  0
  8  9  1  0  0  0  0
  9 10  1  0  0  0  0
 10 11  1  0  0  0  0
 11 12  1  0  0  0  0
 12 13  1  0  0  0  0
 13 14  1  0  0  0  0
 11 15  2  0  0  0  0
 15 16  1  0  0  0  0
 16 17  2  0  0  0  0
 17 18  1  0  0  0  0
 18 10  2  0  0  0  0
  8 19  1  0  0  0  0
 19 20  1  0  0  0  0
 20 21  1  0  0  0  0
 20 22  1  0  0  0  0
  2 23  1  0  0  0  0
  2 24  1  0  0  0  0
  3 25  1  0  0  0  0
  3 26  1  0  0  0  0
  4 27  1  0  0  0  0
  4 28  1  0  0  0  0
  5 29  1  0  0  0  0
  9 30  1  0  0  0  0
  9 31  1  0  0  0  0
 13 32  1  0  0  0  0
 13 33  1  0  0  0  0
 14 34  1  0  0  0  0
 14 35  1  0  0  0  0
 14 36  1  0  0  0  0
 15 37  1  0  0  0  0
 16 38  1  0  0  0  0
 17 39  1  0  0  0  0
 18 40  1  0  0  0  0
 19 41  1  0  0  0  0
 19 42  1  0  0  0  0
 20 43  1  0  0  0  0
 21 44  1  0  0  0  0
 22 45  1  0  0  0  0
 22 46  1  0  0  0  0
 22 47  1  0  0  0  0
 23 48  1  0  0  0  0
 23 49  1  0  0  0  0
 23 50  1  0  0  0  0
 24 51  1  0  0  0  0
 24 52  1  0  0  0  0
 24 53  1  0  0  0  0
M  END
>  <result-rank>
80

>  <similarity>
0.941

>  <query-name>
LIG_A_1101_CCCC[R*]_2

>  <query-smiles>
O=C(NCCCC)[C@@H](NC(=O)C)Cc1ccc(O)cc1

>  <source>
REALspace_2019-12

>  <similarity-descriptor>
1.000;0.995;1.000;1.000;1.000;0.941;0.941;0.953;0.856;0.856;1.000;0.953;0.704;0.118

>  <similarity-descriptor-smiles>
c1ccccc1;C=O;N;C;C;FC(C)C;FC(C)C;N(C)C;CO;CO;C;N(C)C;O;C.C

>  <reaction-name>
s_2708

>  <reagent1-name>
11987194

>  <reagent1-smiles>
[R1*]C(=O)NCCC(F)(C)C

>  <reagent2-name>
911554

>  <reagent2-smiles>
[R1*]N(Cc1c(OCC)cccc1)CC(O)C

$$$$
s_188690b____14468518____13244122
          04022015093D 1   1.00000     0.00000     0
            
 49 49  0  0  0  0            999 V2000
   -2.7917    2.6300    2.7137 O   0  5  0  0  0  0  0  0  0  0  0  0
   -1.6617    2.2411    2.9030 C   0  0  0  0  0  0  0  0  0  0  0  0
   -0.9109    2.8599    3.6878 O   0  0  0  0  0  0  0  0  0  0  0  0
   -1.1550    1.0000    2.1865 C   0  0  3  0  0  0  0  0  0  0  0  0
    0.3150    1.0000    2.1865 N   0  0  0  0  0  0  0  0  0  0  0  0
    1.0000    1.0000    1.0000 C   0  0  0  0  0  0  0  0  0  0  0  0
    0.4000    1.0000   -0.0392 O   0  0  0  0  0  0  0  0  0  0  0  0
    2.5200    1.0000    1.0000 C   0  0  0  0  0  0  0  0  0  0  0  0
    3.0100    0.3070   -0.2002 N   0  3  3  0  0  0  0  0  0  0  0  0
    4.3049    0.8762   -0.6003 C   0  0  0  0  0  0  0  0  0  0  0  0
    4.0755    2.1717   -1.3615 C   0  0  0  0  0  0  0  0  0  0  0  0
    5.3948    2.6633   -1.9344 C   0  0  0  0  0  0  0  0  0  0  0  0
    3.0914    1.9267   -2.4937 C   0  0  0  0  0  0  0  0  0  0  0  0
    3.5108    3.2208   -0.4175 C   0  0  0  0  0  0  0  0  0  0  0  0
    3.1733   -1.1242    0.0926 C   0  0  0  0  0  0  0  0  0  0  0  0
   -1.6617   -0.2411    2.9030 C   0  0  0  0  0  0  0  0  0  0  0  0
   -1.1548   -1.4825    2.1862 C   0  0  0  0  0  0  0  0  0  0  0  0
   -1.9070   -2.0504    1.1626 C   0  0  0  0  0  0  0  0  0  0  0  0
   -3.0892   -1.5123    0.7936 O   0  0  0  0  0  0  0  0  0  0  0  0
   -1.4433   -3.1866    0.5068 C   0  0  0  0  0  0  0  0  0  0  0  0
   -0.2273   -3.7543    0.8744 C   0  0  0  0  0  0  0  0  0  0  0  0
    0.5248   -3.1857    1.8976 C   0  0  0  0  0  0  0  0  0  0  0  0
    0.0611   -2.0496    2.5529 C   0  0  0  0  0  0  0  0  0  0  0  0
    2.3513    0.4221   -0.9438 H   0  0  0  0  0  0  0  0  0  0  0  0
   -1.4883    1.0000    1.2436 H   0  0  0  0  0  0  0  0  0  0  0  0
    0.8150    1.0000    3.0525 H   0  0  0  0  0  0  0  0  0  0  0  0
    2.8533    1.9428    1.0000 H   0  0  0  0  0  0  0  0  0  0  0  0
    2.8533    0.5286    1.8165 H   0  0  0  0  0  0  0  0  0  0  0  0
    4.7879    0.2260   -1.1869 H   0  0  0  0  0  0  0  0  0  0  0  0
    4.8539    1.0612    0.2148 H   0  0  0  0  0  0  0  0  0  0  0  0
    5.2439    3.5156   -2.4351 H   0  0  0  0  0  0  0  0  0  0  0  0
    6.0422    2.8245   -1.1895 H   0  0  0  0  0  0  0  0  0  0  0  0
    5.7663    1.9731   -2.5554 H   0  0  0  0  0  0  0  0  0  0  0  0
    2.9405    2.7790   -2.9945 H   0  0  0  0  0  0  0  0  0  0  0  0
    3.4629    1.2366   -3.1147 H   0  0  0  0  0  0  0  0  0  0  0  0
    2.2234    1.6033   -2.1168 H   0  0  0  0  0  0  0  0  0  0  0  0
    3.3599    4.0731   -0.9183 H   0  0  0  0  0  0  0  0  0  0  0  0
    2.6428    2.8974   -0.0406 H   0  0  0  0  0  0  0  0  0  0  0  0
    4.1582    3.3820    0.3274 H   0  0  0  0  0  0  0  0  0  0  0  0
    3.5067   -1.5956   -0.7239 H   0  0  0  0  0  0  0  0  0  0  0  0
    3.8320   -1.2392    0.8362 H   0  0  0  0  0  0  0  0  0  0  0  0
    2.2924   -1.5114    0.3648 H   0  0  0  0  0  0  0  0  0  0  0  0
   -1.3283   -0.2411    3.8458 H   0  0  0  0  0  0  0  0  0  0  0  0
   -2.6617   -0.2411    2.9030 H   0  0  0  0  0  0  0  0  0  0  0  0
   -3.6203   -1.9299    0.0564 H   0  0  0  0  0  0  0  0  0  0  0  0
   -1.9840   -3.5951   -0.2286 H   0  0  0  0  0  0  0  0  0  0  0  0
    0.1061   -4.5709    0.4033 H   0  0  0  0  0  0  0  0  0  0  0  0
    1.3987   -3.5937    2.1620 H   0  0  0  0  0  0  0  0  0  0  0  0
    0.6021   -1.6406    3.2878 H   0  0  0  0  0  0  0  0  0  0  0  0
  1  2  1  0  0  0  0
  2  3  2  0  0  0  0
  2  4  1  0  0  0  0
  4  5  1  0  0  0  0
  5  6  1  0  0  0  0
  6  7  2  0  0  0  0
  6  8  1  0  0  0  0
  8  9  1  0  0  0  0
  9 10  1  0  0  0  0
 10 11  1  0  0  0  0
 11 12  1  0  0  0  0
 11 13  1  0  0  0  0
 11 14  1  0  0  0  0
  9 15  1  0  0  0  0
  4 16  1  0  0  0  0
 16 17  1  0  0  0  0
 17 18  1  0  0  0  0
 18 19  1  0  0  0  0
 18 20  2  0  0  0  0
 20 21  1  0  0  0  0
 21 22  2  0  0  0  0
 22 23  1  0  0  0  0
 23 17  2  0  0  0  0
  9 24  1  0  0  0  0
  4 25  1  0  0  0  0
  5 26  1  0  0  0  0
  8 27  1  0  0  0  0
  8 28  1  0  0  0  0
 10 29  1  0  0  0  0
 10 30  1  0  0  0  0
 12 31  1  0  0  0  0
 12 32  1  0  0  0  0
 12 33  1  0  0  0  0
 13 34  1  0  0  0  0
 13 35  1  0  0  0  0
 13 36  1  0  0  0  0
 14 37  1  0  0  0  0
 14 38  1  0  0  0  0
 14 39  1  0  0  0  0
 15 40  1  0  0  0  0
 15 41  1  0  0  0  0
 15 42  1  0  0  0  0
 16 43  1  0  0  0  0
 16 44  1  0  0  0  0
 19 45  1  0  0  0  0
 20 46  1  0  0  0  0
 21 47  1  0  0  0  0
 22 48  1  0  0  0  0
 23 49  1  0  0  0  0
M  CHG  2   1  -1   9   1
M  END
>  <result-rank>
81

>  <similarity>
0.941

>  <query-name>
LIG_A_1101_CCCC[R*]_2

>  <query-smiles>
O=C(NCCCC)[C@@H](NC(=O)C)Cc1ccc(O)cc1

>  <source>
REALspace_2019-12

>  <similarity-descriptor>
1.000;1.000;0.983;0.983;0.993;0.964;0.964;1.000;1.000;0.733;0.733;1.000;1.000;0.133

>  <similarity-descriptor-smiles>
c1ccccc1;C=O;C[NH+];C[NH+];C;C(C)C;C(C)C;CN;CN;[O-]C=O;[O-]C=O;C;O;C.C

>  <reaction-name>
s_188690b

>  <reagent1-name>
14468518

>  <reagent1-smiles>
[R1*]NC(C(=O)O)Cc1c(O)cccc1

>  <reagent2-name>
13244122

>  <reagent2-smiles>
[R1*]C(=O)CN(CC(C)(C)C)C

$$$$
s_527a____10737786____3192128
          04022015093D 1   1.00000     0.00000     0
            
 55 56  0  0  0  0            999 V2000
    1.9688    3.0524    1.6507 O   0  0  0  0  0  0  0  0  0  0  0  0
    1.8776    1.8776    1.8776 C   0  0  0  0  0  0  0  0  0  0  0  0
    2.5644    1.3273    2.9275 N   0  0  0  0  0  0  0  0  0  0  0  0
    3.4131    2.1760    3.7762 C   0  0  0  0  0  0  0  0  0  0  0  0
    4.0575    1.3261    4.8594 C   0  0  0  0  0  0  0  0  0  0  0  0
    3.0847    0.6613    5.7334 N   0  3  0  0  0  0  0  0  0  0  0  0
    2.2545    1.6737    6.4018 C   0  0  0  0  0  0  0  0  0  0  0  0
    5.1610    2.0736    5.5736 C   0  0  0  0  0  0  0  0  0  0  0  0
    5.9480    0.7798    5.5461 C   0  0  0  0  0  0  0  0  0  0  0  0
    5.1591    0.4552    4.2963 C   0  0  0  0  0  0  0  0  0  0  0  0
    1.0000    1.0000    1.0000 C   0  0  0  0  0  0  0  0  0  0  0  0
    0.7075    1.7208   -0.3059 C   0  0  3  0  0  0  0  0  0  0  0  0
   -0.2825    0.9552   -1.0771 N   0  0  0  0  0  0  0  0  0  0  0  0
   -1.4824    1.5266   -1.4097 C   0  0  0  0  0  0  0  0  0  0  0  0
   -1.7253    2.6520   -1.0715 O   0  0  0  0  0  0  0  0  0  0  0  0
   -2.5060    0.7349   -2.2071 C   0  0  0  0  0  0  0  0  0  0  0  0
    1.9899    1.8484   -1.1126 C   0  0  0  0  0  0  0  0  0  0  0  0
    2.3107    3.0573   -1.7222 C   0  0  0  0  0  0  0  0  0  0  0  0
    1.4943    4.1268   -1.6080 O   0  0  0  0  0  0  0  0  0  0  0  0
    1.9297    5.4031   -2.0527 C   0  0  0  0  0  0  0  0  0  0  0  0
    0.8309    6.4254   -1.8122 C   0  0  0  0  0  0  0  0  0  0  0  0
    3.4842    3.1740   -2.4607 C   0  0  0  0  0  0  0  0  0  0  0  0
    4.3369    2.0819   -2.5890 C   0  0  0  0  0  0  0  0  0  0  0  0
    4.0159    0.8734   -1.9787 C   0  0  0  0  0  0  0  0  0  0  0  0
    2.8428    0.7571   -1.2402 C   0  0  0  0  0  0  0  0  0  0  0  0
    3.5693    0.1207    6.4211 H   0  0  0  0  0  0  0  0  0  0  0  0
    2.5017    0.0602    5.1868 H   0  0  0  0  0  0  0  0  0  0  0  0
    2.4883    0.3483    3.1166 H   0  0  0  0  0  0  0  0  0  0  0  0
    2.8540    2.8885    4.2002 H   0  0  0  0  0  0  0  0  0  0  0  0
    4.1256    2.5999    3.2171 H   0  0  0  0  0  0  0  0  0  0  0  0
    1.5914    1.2206    6.9976 H   0  0  0  0  0  0  0  0  0  0  0  0
    2.8375    2.2749    6.9484 H   0  0  0  0  0  0  0  0  0  0  0  0
    1.7700    2.2144    5.7142 H   0  0  0  0  0  0  0  0  0  0  0  0
    4.9222    2.3989    6.4886 H   0  0  0  0  0  0  0  0  0  0  0  0
    5.5672    2.8219    5.0492 H   0  0  0  0  0  0  0  0  0  0  0  0
    5.7840    0.1686    6.3203 H   0  0  0  0  0  0  0  0  0  0  0  0
    6.9327    0.8868    5.4086 H   0  0  0  0  0  0  0  0  0  0  0  0
    5.5649    0.7909    3.4462 H   0  0  0  0  0  0  0  0  0  0  0  0
    4.9181   -0.5097    4.1924 H   0  0  0  0  0  0  0  0  0  0  0  0
    0.1409    0.8075    1.4742 H   0  0  0  0  0  0  0  0  0  0  0  0
    1.4742    0.1409    0.8075 H   0  0  0  0  0  0  0  0  0  0  0  0
    0.3450    2.6319   -0.1097 H   0  0  0  0  0  0  0  0  0  0  0  0
   -0.0801    0.0173   -1.3589 H   0  0  0  0  0  0  0  0  0  0  0  0
   -2.1436   -0.1762   -2.4032 H   0  0  0  0  0  0  0  0  0  0  0  0
   -3.3495    0.6510   -1.6765 H   0  0  0  0  0  0  0  0  0  0  0  0
   -2.6985    1.2091   -3.0662 H   0  0  0  0  0  0  0  0  0  0  0  0
    2.1390    5.3622   -3.0297 H   0  0  0  0  0  0  0  0  0  0  0  0
    2.7500    5.6703   -1.5470 H   0  0  0  0  0  0  0  0  0  0  0  0
    1.1375    7.3243   -2.1254 H   0  0  0  0  0  0  0  0  0  0  0  0
    0.0106    6.1582   -2.3179 H   0  0  0  0  0  0  0  0  0  0  0  0
    0.6216    6.4664   -0.8352 H   0  0  0  0  0  0  0  0  0  0  0  0
    3.7147    4.0427   -2.8992 H   0  0  0  0  0  0  0  0  0  0  0  0
    5.1802    2.1656   -3.1197 H   0  0  0  0  0  0  0  0  0  0  0  0
    4.6286    0.0885   -2.0709 H   0  0  0  0  0  0  0  0  0  0  0  0
    2.6126   -0.1113   -0.8009 H   0  0  0  0  0  0  0  0  0  0  0  0
  1  2  2  0  0  0  0
  2  3  1  0  0  0  0
  3  4  1  0  0  0  0
  4  5  1  0  0  0  0
  5  6  1  0  0  0  0
  6  7  1  0  0  0  0
  5  8  1  0  0  0  0
  8  9  1  0  0  0  0
  9 10  1  0  0  0  0
 10  5  1  0  0  0  0
  2 11  1  0  0  0  0
 11 12  1  0  0  0  0
 12 13  1  0  0  0  0
 13 14  1  0  0  0  0
 14 15  2  0  0  0  0
 14 16  1  0  0  0  0
 12 17  1  0  0  0  0
 17 18  1  0  0  0  0
 18 19  1  0  0  0  0
 19 20  1  0  0  0  0
 20 21  1  0  0  0  0
 18 22  2  0  0  0  0
 22 23  1  0  0  0  0
 23 24  2  0  0  0  0
 24 25  1  0  0  0  0
 25 17  2  0  0  0  0
  6 26  1  0  0  0  0
  6 27  1  0  0  0  0
  3 28  1  0  0  0  0
  4 29  1  0  0  0  0
  4 30  1  0  0  0  0
  7 31  1  0  0  0  0
  7 32  1  0  0  0  0
  7 33  1  0  0  0  0
  8 34  1  0  0  0  0
  8 35  1  0  0  0  0
  9 36  1  0  0  0  0
  9 37  1  0  0  0  0
 10 38  1  0  0  0  0
 10 39  1  0  0  0  0
 11 40  1  0  0  0  0
 11 41  1  0  0  0  0
 12 42  1  0  0  0  0
 13 43  1  0  0  0  0
 16 44  1  0  0  0  0
 16 45  1  0  0  0  0
 16 46  1  0  0  0  0
 20 47  1  0  0  0  0
 20 48  1  0  0  0  0
 21 49  1  0  0  0  0
 21 50  1  0  0  0  0
 21 51  1  0  0  0  0
 22 52  1  0  0  0  0
 23 53  1  0  0  0  0
 24 54  1  0  0  0  0
 25 55  1  0  0  0  0
M  CHG  1   6   1
M  END
>  <result-rank>
82

>  <similarity>
0.940

>  <query-name>
LIG_A_1101_CCCC[R*]_2

>  <query-smiles>
O=C(NCCCC)[C@@H](NC(=O)C)Cc1ccc(O)cc1

>  <source>
REALspace_2019-12

>  <similarity-descriptor>
1.000;1.000;1.000;1.000;0.897;0.897;0.897;1.000;1.000;1.000;1.000;1.000;0.704;0.267

>  <similarity-descriptor-smiles>
c1ccccc1;O=C;N;C;C1CCC1;C1CCC1;C1CCC1;CC;N;C=O;C;CC;O;[NH2+].C.C.C

>  <reaction-name>
s_527a

>  <reagent1-name>
10737786

>  <reagent1-smiles>
[R1*]NCC1(NC)CCC1

>  <reagent2-name>
3192128

>  <reagent2-smiles>
[R1*]C(=O)CC(NC(=O)C)c1c(OCC)cccc1

$$$$
s_527a____11246852____3192128
          04022015093D 1   1.00000     0.00000     0
            
 50 51  0  0  0  0            999 V2000
    1.9688    3.0524    1.6507 O   0  0  0  0  0  0  0  0  0  0  0  0
    1.8776    1.8776    1.8776 C   0  0  0  0  0  0  0  0  0  0  0  0
    2.5644    1.3273    2.9275 N   0  0  0  0  0  0  0  0  0  0  0  0
    3.4131    2.1760    3.7762 C   0  0  0  0  0  0  0  0  0  0  0  0
    4.0571    1.3266    4.8587 C   0  0  0  0  0  0  0  0  0  0  0  0
    3.0019    0.6646    5.7308 C   0  0  0  0  0  0  0  0  0  0  0  0
    2.2108    0.1682    6.3846 N   0  0  0  0  0  0  0  0  0  0  0  0
    5.1550    0.3814    4.4035 C   0  0  0  0  0  0  0  0  0  0  0  0
    6.1262    1.5174    4.6107 C   0  0  0  0  0  0  0  0  0  0  0  0
    5.1471    2.0021    5.6554 C   0  0  0  0  0  0  0  0  0  0  0  0
    1.0000    1.0000    1.0000 C   0  0  0  0  0  0  0  0  0  0  0  0
    0.7075    1.7208   -0.3059 C   0  0  3  0  0  0  0  0  0  0  0  0
   -0.2825    0.9552   -1.0771 N   0  0  0  0  0  0  0  0  0  0  0  0
   -1.4824    1.5266   -1.4097 C   0  0  0  0  0  0  0  0  0  0  0  0
   -1.7253    2.6520   -1.0715 O   0  0  0  0  0  0  0  0  0  0  0  0
   -2.5060    0.7349   -2.2071 C   0  0  0  0  0  0  0  0  0  0  0  0
    1.9899    1.8484   -1.1126 C   0  0  0  0  0  0  0  0  0  0  0  0
    2.3107    3.0573   -1.7222 C   0  0  0  0  0  0  0  0  0  0  0  0
    1.4943    4.1268   -1.6080 O   0  0  0  0  0  0  0  0  0  0  0  0
    1.9297    5.4031   -2.0527 C   0  0  0  0  0  0  0  0  0  0  0  0
    0.8309    6.4254   -1.8122 C   0  0  0  0  0  0  0  0  0  0  0  0
    3.4842    3.1740   -2.4607 C   0  0  0  0  0  0  0  0  0  0  0  0
    4.3369    2.0819   -2.5890 C   0  0  0  0  0  0  0  0  0  0  0  0
    4.0159    0.8734   -1.9787 C   0  0  0  0  0  0  0  0  0  0  0  0
    2.8428    0.7571   -1.2402 C   0  0  0  0  0  0  0  0  0  0  0  0
    2.4883    0.3483    3.1166 H   0  0  0  0  0  0  0  0  0  0  0  0
    2.8540    2.8885    4.2002 H   0  0  0  0  0  0  0  0  0  0  0  0
    4.1256    2.5999    3.2171 H   0  0  0  0  0  0  0  0  0  0  0  0
    5.0720    0.0708    3.4566 H   0  0  0  0  0  0  0  0  0  0  0  0
    5.3013   -0.4069    5.0012 H   0  0  0  0  0  0  0  0  0  0  0  0
    6.2432    2.1245    3.8247 H   0  0  0  0  0  0  0  0  0  0  0  0
    7.0236    1.2499    4.9618 H   0  0  0  0  0  0  0  0  0  0  0  0
    5.2913    1.6225    6.5693 H   0  0  0  0  0  0  0  0  0  0  0  0
    5.0624    2.9966    5.7172 H   0  0  0  0  0  0  0  0  0  0  0  0
    0.1409    0.8075    1.4742 H   0  0  0  0  0  0  0  0  0  0  0  0
    1.4742    0.1409    0.8075 H   0  0  0  0  0  0  0  0  0  0  0  0
    0.3450    2.6319   -0.1097 H   0  0  0  0  0  0  0  0  0  0  0  0
   -0.0801    0.0173   -1.3589 H   0  0  0  0  0  0  0  0  0  0  0  0
   -2.1436   -0.1762   -2.4032 H   0  0  0  0  0  0  0  0  0  0  0  0
   -3.3495    0.6510   -1.6765 H   0  0  0  0  0  0  0  0  0  0  0  0
   -2.6985    1.2091   -3.0662 H   0  0  0  0  0  0  0  0  0  0  0  0
    2.1390    5.3622   -3.0297 H   0  0  0  0  0  0  0  0  0  0  0  0
    2.7500    5.6703   -1.5470 H   0  0  0  0  0  0  0  0  0  0  0  0
    1.1375    7.3243   -2.1254 H   0  0  0  0  0  0  0  0  0  0  0  0
    0.0106    6.1582   -2.3179 H   0  0  0  0  0  0  0  0  0  0  0  0
    0.6216    6.4664   -0.8352 H   0  0  0  0  0  0  0  0  0  0  0  0
    3.7147    4.0427   -2.8992 H   0  0  0  0  0  0  0  0  0  0  0  0
    5.1802    2.1656   -3.1197 H   0  0  0  0  0  0  0  0  0  0  0  0
    4.6286    0.0885   -2.0709 H   0  0  0  0  0  0  0  0  0  0  0  0
    2.6126   -0.1113   -0.8009 H   0  0  0  0  0  0  0  0  0  0  0  0
  1  2  2  0  0  0  0
  2  3  1  0  0  0  0
  3  4  1  0  0  0  0
  4  5  1  0  0  0  0
  5  6  1  0  0  0  0
  6  7  3  0  0  0  0
  5  8  1  0  0  0  0
  8  9  1  0  0  0  0
  9 10  1  0  0  0  0
 10  5  1  0  0  0  0
  2 11  1  0  0  0  0
 11 12  1  0  0  0  0
 12 13  1  0  0  0  0
 13 14  1  0  0  0  0
 14 15  2  0  0  0  0
 14 16  1  0  0  0  0
 12 17  1  0  0  0  0
 17 18  1  0  0  0  0
 18 19  1  0  0  0  0
 19 20  1  0  0  0  0
 20 21  1  0  0  0  0
 18 22  2  0  0  0  0
 22 23  1  0  0  0  0
 23 24  2  0  0  0  0
 24 25  1  0  0  0  0
 25 17  2  0  0  0  0
  3 26  1  0  0  0  0
  4 27  1  0  0  0  0
  4 28  1  0  0  0  0
  8 29  1  0  0  0  0
  8 30  1  0  0  0  0
  9 31  1  0  0  0  0
  9 32  1  0  0  0  0
 10 33  1  0  0  0  0
 10 34  1  0  0  0  0
 11 35  1  0  0  0  0
 11 36  1  0  0  0  0
 12 37  1  0  0  0  0
 13 38  1  0  0  0  0
 16 39  1  0  0  0  0
 16 40  1  0  0  0  0
 16 41  1  0  0  0  0
 20 42  1  0  0  0  0
 20 43  1  0  0  0  0
 21 44  1  0  0  0  0
 21 45  1  0  0  0  0
 21 46  1  0  0  0  0
 22 47  1  0  0  0  0
 23 48  1  0  0  0  0
 24 49  1  0  0  0  0
 25 50  1  0  0  0  0
M  END
>  <result-rank>
83

>  <similarity>
0.940

>  <query-name>
LIG_A_1101_CCCC[R*]_2

>  <query-smiles>
O=C(NCCCC)[C@@H](NC(=O)C)Cc1ccc(O)cc1

>  <source>
REALspace_2019-12

>  <similarity-descriptor>
1.000;1.000;1.000;1.000;0.895;0.895;0.895;1.000;1.000;1.000;1.000;1.000;0.704;0.214

>  <similarity-descriptor-smiles>
c1ccccc1;O=C;N;C;C1CCC1;C1CCC1;C1CCC1;CC;N;C=O;C;CC;O;C#N.C.C

>  <reaction-name>
s_527a

>  <reagent1-name>
11246852

>  <reagent1-smiles>
[R1*]NCC1(C#N)CCC1

>  <reagent2-name>
3192128

>  <reagent2-smiles>
[R1*]C(=O)CC(NC(=O)C)c1c(OCC)cccc1

$$$$
s_2430a____16634140____14422702
          04022015093D 1   1.00000     0.00000     0
            
 44 44  0  0  0  0            999 V2000
   -2.9917    2.9030   -0.2411 F   0  0  0  0  0  0  0  0  0  0  0  0
   -1.6617    2.9030   -0.2411 C   0  0  0  0  0  0  0  0  0  0  0  0
   -1.2183    4.1569   -0.2411 F   0  0  0  0  0  0  0  0  0  0  0  0
   -1.2183    2.2760   -1.3270 F   0  0  0  0  0  0  0  0  0  0  0  0
   -1.1550    2.1865    1.0000 C   0  0  3  0  0  0  0  0  0  0  0  0
    0.3150    2.1865    1.0000 N   0  0  0  0  0  0  0  0  0  0  0  0
    1.0000    1.0000    1.0000 C   0  0  0  0  0  0  0  0  0  0  0  0
    0.4000   -0.0392    1.0000 O   0  0  0  0  0  0  0  0  0  0  0  0
    2.3700    1.0000    1.0000 N   0  0  0  0  0  0  0  0  0  0  0  0
    3.1050   -0.2731    1.0000 C   0  0  3  0  0  0  0  0  0  0  0  0
    3.9789   -0.3536    2.2411 C   0  0  0  0  0  0  0  0  0  0  0  0
    5.0852   -0.8125    2.1672 O   0  0  0  0  0  0  0  0  0  0  0  0
    3.5034    0.0977    3.4441 N   0  0  0  0  0  0  0  0  0  0  0  0
    3.9789   -0.3536   -0.2411 C   0  0  0  0  0  0  0  0  0  0  0  0
    3.1050   -0.2731   -1.4822 C   0  0  0  0  0  0  0  0  0  0  0  0
    2.8226    0.9691   -2.0410 C   0  0  0  0  0  0  0  0  0  0  0  0
    2.0241    1.0476   -3.1770 C   0  0  0  0  0  0  0  0  0  0  0  0
    1.5177   -0.1192   -3.7409 C   0  0  0  0  0  0  0  0  0  0  0  0
    0.7420   -0.0476   -4.8432 O   0  0  0  0  0  0  0  0  0  0  0  0
    1.7968   -1.3640   -3.1858 C   0  0  0  0  0  0  0  0  0  0  0  0
    2.5962   -1.4366   -2.0500 C   0  0  0  0  0  0  0  0  0  0  0  0
   -1.6617    2.9030    2.2411 C   0  0  0  0  0  0  0  0  0  0  0  0
   -1.1550    2.1865    3.4821 C   0  0  0  0  0  0  0  0  0  0  0  0
   -1.6617    2.9030    4.7232 C   0  0  0  0  0  0  0  0  0  0  0  0
   -1.4883    1.2436    1.0000 H   0  0  0  0  0  0  0  0  0  0  0  0
    0.8150    3.0525    1.0000 H   0  0  0  0  0  0  0  0  0  0  0  0
    2.8700    1.8660    1.0000 H   0  0  0  0  0  0  0  0  0  0  0  0
    2.4552   -1.0331    1.0000 H   0  0  0  0  0  0  0  0  0  0  0  0
    2.5815    0.4801    3.5057 H   0  0  0  0  0  0  0  0  0  0  0  0
    4.0784    0.0448    4.2606 H   0  0  0  0  0  0  0  0  0  0  0  0
    4.6287    0.4065   -0.2411 H   0  0  0  0  0  0  0  0  0  0  0  0
    4.4789   -1.2196   -0.2411 H   0  0  0  0  0  0  0  0  0  0  0  0
    3.1920    1.8015   -1.6279 H   0  0  0  0  0  0  0  0  0  0  0  0
    1.8154    1.9361   -3.5856 H   0  0  0  0  0  0  0  0  0  0  0  0
    0.3758   -0.8835   -5.2521 H   0  0  0  0  0  0  0  0  0  0  0  0
    1.4271   -2.1964   -3.5984 H   0  0  0  0  0  0  0  0  0  0  0  0
    2.8052   -2.3252   -1.6416 H   0  0  0  0  0  0  0  0  0  0  0  0
   -2.6617    2.9030    2.2411 H   0  0  0  0  0  0  0  0  0  0  0  0
   -1.3283    3.8458    2.2411 H   0  0  0  0  0  0  0  0  0  0  0  0
   -0.1550    2.1865    3.4821 H   0  0  0  0  0  0  0  0  0  0  0  0
   -1.4883    1.2436    3.4821 H   0  0  0  0  0  0  0  0  0  0  0  0
   -1.3283    2.4316    5.5397 H   0  0  0  0  0  0  0  0  0  0  0  0
   -1.3283    3.8458    4.7232 H   0  0  0  0  0  0  0  0  0  0  0  0
   -2.6617    2.9030    4.7232 H   0  0  0  0  0  0  0  0  0  0  0  0
  1  2  1  0  0  0  0
  2  3  1  0  0  0  0
  2  4  1  0  0  0  0
  2  5  1  0  0  0  0
  5  6  1  0  0  0  0
  6  7  1  0  0  0  0
  7  8  2  0  0  0  0
  7  9  1  0  0  0  0
  9 10  1  0  0  0  0
 10 11  1  0  0  0  0
 11 12  2  0  0  0  0
 11 13  1  0  0  0  0
 10 14  1  0  0  0  0
 14 15  1  0  0  0  0
 15 16  1  0  0  0  0
 16 17  2  0  0  0  0
 17 18  1  0  0  0  0
 18 19  1  0  0  0  0
 18 20  2  0  0  0  0
 20 21  1  0  0  0  0
 21 15  2  0  0  0  0
  5 22  1  0  0  0  0
 22 23  1  0  0  0  0
 23 24  1  0  0  0  0
  5 25  1  0  0  0  0
  6 26  1  0  0  0  0
  9 27  1  0  0  0  0
 10 28  1  0  0  0  0
 13 29  1  0  0  0  0
 13 30  1  0  0  0  0
 14 31  1  0  0  0  0
 14 32  1  0  0  0  0
 16 33  1  0  0  0  0
 17 34  1  0  0  0  0
 19 35  1  0  0  0  0
 20 36  1  0  0  0  0
 21 37  1  0  0  0  0
 22 38  1  0  0  0  0
 22 39  1  0  0  0  0
 23 40  1  0  0  0  0
 23 41  1  0  0  0  0
 24 42  1  0  0  0  0
 24 43  1  0  0  0  0
 24 44  1  0  0  0  0
M  END
>  <result-rank>
84

>  <similarity>
0.939

>  <query-name>
LIG_A_1101_CCCC[R*]_2

>  <query-smiles>
O=C(NCCCC)[C@@H](NC(=O)C)Cc1ccc(O)cc1

>  <source>
REALspace_2019-12

>  <similarity-descriptor>
1.000;0.995;1.000;0.969;0.969;1.000;1.000;1.000;1.000;0.836;0.836;1.000;1.000;0.143

>  <similarity-descriptor-smiles>
c1ccccc1;C=O;N;CC;CC;C;C;NC;NC;C=O;C=O;C;O;FC(F)F.N

>  <reaction-name>
s_2430a

>  <reagent1-name>
16634140

>  <reagent1-smiles>
[R1*]C(=O)NC(C(F)(F)F)CCC

>  <reagent2-name>
14422702

>  <reagent2-smiles>
[R1*]NC(C(=O)N)Cc1ccc(O)cc1

$$$$
s_11a____10641116____12900016
          04022015093D 1   1.00000     0.00000     0
            
 38 38  0  0  0  0            999 V2000
   -2.9917   -0.2411    2.9030 F   0  0  0  0  0  0  0  0  0  0  0  0
   -1.6617   -0.2411    2.9030 C   0  0  0  0  0  0  0  0  0  0  0  0
   -1.2183   -1.3270    2.2760 F   0  0  0  0  0  0  0  0  0  0  0  0
   -1.1550    1.0000    2.1865 C   0  0  3  0  0  0  0  0  0  0  0  0
    0.3150    1.0000    2.1865 N   0  0  0  0  0  0  0  0  0  0  0  0
    1.0000    1.0000    1.0000 C   0  0  0  0  0  0  0  0  0  0  0  0
    0.4000    1.0000   -0.0392 O   0  0  0  0  0  0  0  0  0  0  0  0
    2.5200    1.0000    1.0000 C   0  0  0  0  0  0  0  0  0  0  0  0
    3.0100    1.0000   -0.3859 N   0  0  0  0  0  0  0  0  0  0  0  0
    3.2434   -0.2126   -1.0460 C   0  0  0  0  0  0  0  0  0  0  0  0
    2.2184   -0.8090   -1.7736 C   0  0  0  0  0  0  0  0  0  0  0  0
    2.4541   -2.0135   -2.4281 C   0  0  0  0  0  0  0  0  0  0  0  0
    3.7069   -2.6126   -2.3521 C   0  0  0  0  0  0  0  0  0  0  0  0
    4.7243   -2.0071   -1.6223 C   0  0  0  0  0  0  0  0  0  0  0  0
    4.5003   -0.8027   -0.9635 C   0  0  0  0  0  0  0  0  0  0  0  0
    3.2383    2.1865   -1.0318 C   0  0  0  0  0  0  0  0  0  0  0  0
    3.0383    3.2257   -0.4661 O   0  0  0  0  0  0  0  0  0  0  0  0
    3.7450    2.1865   -2.4648 C   0  0  0  0  0  0  0  0  0  0  0  0
   -1.6617    2.2411    2.9030 C   0  0  0  0  0  0  0  0  0  0  0  0
   -1.1550    3.4821    2.1865 C   0  0  0  0  0  0  0  0  0  0  0  0
   -1.3283   -0.2411    3.8458 H   0  0  0  0  0  0  0  0  0  0  0  0
   -1.4883    1.0000    1.2436 H   0  0  0  0  0  0  0  0  0  0  0  0
    0.8150    1.0000    3.0525 H   0  0  0  0  0  0  0  0  0  0  0  0
    2.8533    1.8165    1.4714 H   0  0  0  0  0  0  0  0  0  0  0  0
    2.8533    0.1835    1.4714 H   0  0  0  0  0  0  0  0  0  0  0  0
    1.3190   -0.3750   -1.8256 H   0  0  0  0  0  0  0  0  0  0  0  0
    1.7228   -2.4486   -2.9533 H   0  0  0  0  0  0  0  0  0  0  0  0
    3.8762   -3.4789   -2.8222 H   0  0  0  0  0  0  0  0  0  0  0  0
    5.6238   -2.4410   -1.5707 H   0  0  0  0  0  0  0  0  0  0  0  0
    5.2318   -0.3676   -0.4386 H   0  0  0  0  0  0  0  0  0  0  0  0
    3.8561    1.2436   -2.7791 H   0  0  0  0  0  0  0  0  0  0  0  0
    3.0863    2.6579   -3.0513 H   0  0  0  0  0  0  0  0  0  0  0  0
    4.6259    2.6579   -2.5069 H   0  0  0  0  0  0  0  0  0  0  0  0
   -1.3283    2.2411    3.8458 H   0  0  0  0  0  0  0  0  0  0  0  0
   -2.6617    2.2411    2.9030 H   0  0  0  0  0  0  0  0  0  0  0  0
   -1.4883    4.2986    2.6579 H   0  0  0  0  0  0  0  0  0  0  0  0
   -0.1550    3.4821    2.1865 H   0  0  0  0  0  0  0  0  0  0  0  0
   -1.4883    3.4821    1.2436 H   0  0  0  0  0  0  0  0  0  0  0  0
  1  2  1  0  0  0  0
  2  3  1  0  0  0  0
  2  4  1  0  0  0  0
  4  5  1  0  0  0  0
  5  6  1  0  0  0  0
  6  7  2  0  0  0  0
  6  8  1  0  0  0  0
  8  9  1  0  0  0  0
  9 10  1  0  0  0  0
 10 11  1  0  0  0  0
 11 12  2  0  0  0  0
 12 13  1  0  0  0  0
 13 14  2  0  0  0  0
 14 15  1  0  0  0  0
 15 10  2  0  0  0  0
  9 16  1  0  0  0  0
 16 17  2  0  0  0  0
 16 18  1  0  0  0  0
  4 19  1  0  0  0  0
 19 20  1  0  0  0  0
  2 21  1  0  0  0  0
  4 22  1  0  0  0  0
  5 23  1  0  0  0  0
  8 24  1  0  0  0  0
  8 25  1  0  0  0  0
 11 26  1  0  0  0  0
 12 27  1  0  0  0  0
 13 28  1  0  0  0  0
 14 29  1  0  0  0  0
 15 30  1  0  0  0  0
 18 31  1  0  0  0  0
 18 32  1  0  0  0  0
 18 33  1  0  0  0  0
 19 34  1  0  0  0  0
 19 35  1  0  0  0  0
 20 36  1  0  0  0  0
 20 37  1  0  0  0  0
 20 38  1  0  0  0  0
M  END
>  <result-rank>
85

>  <similarity>
0.939

>  <query-name>
LIG_A_1101_CCCC[R*]_2

>  <query-smiles>
O=C(NCCCC)[C@@H](NC(=O)C)Cc1ccc(O)cc1

>  <source>
REALspace_2019-12

>  <similarity-descriptor>
0.925;1.000;1.000;0.982;0.982;1.000;1.000;0.909;0.852;0.852;1.000;0.925;0.0;0.0

>  <similarity-descriptor-smiles>
c1ccccc1;C=O;N;FC(F)C;FC(F)C;C;C;CN;C=O;C=O;C;c1ccccc1;;

>  <reaction-name>
s_11a

>  <reagent1-name>
10641116

>  <reagent1-smiles>
[R1*]NC(C(F)F)CC

>  <reagent2-name>
12900016

>  <reagent2-smiles>
[R1*]C(=O)CN(c1ccccc1)C(=O)C

$$$$
s_22____9749456____12624298
          04022015093D 1   1.00000     0.00000     0
            
 42 42  0  0  0  0            999 V2000
   -1.6279    5.9701    3.9940 Br  0  0  0  0  0  0  0  0  0  0  0  0
   -2.0601    4.5331    2.7334 C   0  0  0  0  0  0  0  0  0  0  0  0
   -1.4973    3.2734    2.9068 C   0  0  0  0  0  0  0  0  0  0  0  0
   -1.8135    2.2640    2.0028 C   0  0  0  0  0  0  0  0  0  0  0  0
   -2.6775    2.5003    0.9389 C   0  0  0  0  0  0  0  0  0  0  0  0
   -3.2288    3.7679    0.7836 C   0  0  0  0  0  0  0  0  0  0  0  0
   -2.9260    4.7910    1.6760 C   0  0  0  0  0  0  0  0  0  0  0  0
   -1.2007    0.8853    2.1890 C   0  0  3  0  0  0  0  0  0  0  0  0
   -1.6471    0.3195    3.4702 N   0  0  0  0  0  0  0  0  0  0  0  0
   -2.3479   -0.8575    3.4922 C   0  0  0  0  0  0  0  0  0  0  0  0
   -2.5972   -1.4266    2.4656 O   0  0  0  0  0  0  0  0  0  0  0  0
   -2.8095   -1.4425    4.8170 C   0  0  0  0  0  0  0  0  0  0  0  0
    0.3150    1.0000    2.1865 C   0  0  0  0  0  0  0  0  0  0  0  0
    0.9116    1.0906    3.2237 O   0  0  0  0  0  0  0  0  0  0  0  0
    1.0000    1.0000    1.0000 N   0  0  0  0  0  0  0  0  0  0  0  0
    2.4700    1.0000    1.0000 C   0  0  0  0  0  0  0  0  0  0  0  0
    2.9767   -0.4331    1.0000 C   0  0  0  0  0  0  0  0  0  0  0  0
    4.4967   -0.4331    1.0000 C   0  0  0  0  0  0  0  0  0  0  0  0
    5.1000   -2.1396    1.0000 S   0  0  0  0  0  0  0  0  0  0  0  0
    4.6179   -2.6103    2.6799 C   0  0  0  0  0  0  0  0  0  0  0  0
    0.2650    1.0000   -0.2731 C   0  0  0  0  0  0  0  0  0  0  0  0
   -0.8752    3.0957    3.6693 H   0  0  0  0  0  0  0  0  0  0  0  0
   -2.8995    1.7688    0.2943 H   0  0  0  0  0  0  0  0  0  0  0  0
   -3.8506    3.9459    0.0209 H   0  0  0  0  0  0  0  0  0  0  0  0
   -3.3258    5.7001    1.5589 H   0  0  0  0  0  0  0  0  0  0  0  0
   -1.4910    0.2877    1.4415 H   0  0  0  0  0  0  0  0  0  0  0  0
   -1.4393    0.7938    4.3257 H   0  0  0  0  0  0  0  0  0  0  0  0
   -2.5192   -0.8449    5.5644 H   0  0  0  0  0  0  0  0  0  0  0  0
   -3.8067   -1.5179    4.8186 H   0  0  0  0  0  0  0  0  0  0  0  0
   -2.4064   -2.3494    4.9395 H   0  0  0  0  0  0  0  0  0  0  0  0
    2.8033    1.4714    1.8165 H   0  0  0  0  0  0  0  0  0  0  0  0
    2.8033    1.4714    0.1835 H   0  0  0  0  0  0  0  0  0  0  0  0
    2.6433   -0.9045    1.8165 H   0  0  0  0  0  0  0  0  0  0  0  0
    2.6433   -0.9045    0.1835 H   0  0  0  0  0  0  0  0  0  0  0  0
    4.8300    0.0383    0.1835 H   0  0  0  0  0  0  0  0  0  0  0  0
    4.8300    0.0383    1.8165 H   0  0  0  0  0  0  0  0  0  0  0  0
    4.8871   -3.5581    2.8507 H   0  0  0  0  0  0  0  0  0  0  0  0
    5.0735   -2.0107    3.3378 H   0  0  0  0  0  0  0  0  0  0  0  0
    3.6268   -2.5222    2.7793 H   0  0  0  0  0  0  0  0  0  0  0  0
    0.9148    1.0000   -1.0331 H   0  0  0  0  0  0  0  0  0  0  0  0
   -0.3099    0.1835   -0.3260 H   0  0  0  0  0  0  0  0  0  0  0  0
   -0.3099    1.8165   -0.3260 H   0  0  0  0  0  0  0  0  0  0  0  0
  1  2  1  0  0  0  0
  2  3  1  0  0  0  0
  3  4  2  0  0  0  0
  4  5  1  0  0  0  0
  5  6  2  0  0  0  0
  6  7  1  0  0  0  0
  7  2  2  0  0  0  0
  4  8  1  0  0  0  0
  8  9  1  0  0  0  0
  9 10  1  0  0  0  0
 10 11  2  0  0  0  0
 10 12  1  0  0  0  0
  8 13  1  0  0  0  0
 13 14  2  0  0  0  0
 13 15  1  0  0  0  0
 15 16  1  0  0  0  0
 16 17  1  0  0  0  0
 17 18  1  0  0  0  0
 18 19  1  0  0  0  0
 19 20  1  0  0  0  0
 15 21  1  0  0  0  0
  3 22  1  0  0  0  0
  5 23  1  0  0  0  0
  6 24  1  0  0  0  0
  7 25  1  0  0  0  0
  8 26  1  0  0  0  0
  9 27  1  0  0  0  0
 12 28  1  0  0  0  0
 12 29  1  0  0  0  0
 12 30  1  0  0  0  0
 16 31  1  0  0  0  0
 16 32  1  0  0  0  0
 17 33  1  0  0  0  0
 17 34  1  0  0  0  0
 18 35  1  0  0  0  0
 18 36  1  0  0  0  0
 20 37  1  0  0  0  0
 20 38  1  0  0  0  0
 20 39  1  0  0  0  0
 21 40  1  0  0  0  0
 21 41  1  0  0  0  0
 21 42  1  0  0  0  0
M  END
>  <result-rank>
86

>  <similarity>
0.939

>  <query-name>
LIG_A_1101_CCCC[R*]_2

>  <query-smiles>
O=C(NCCCC)[C@@H](NC(=O)C)Cc1ccc(O)cc1

>  <source>
REALspace_2019-12

>  <similarity-descriptor>
0.969;0.852;0.852;0.959;0.959;1.000;0.951;1.000;1.000;1.000;1.000;0.969;0.0;0.154

>  <similarity-descriptor-smiles>
Brc1ccccc1;C=O;C=O;N(C)C;N(C)C;C;C;C;N;C=O;C;Brc1ccccc1;;S.C

>  <reaction-name>
s_22

>  <reagent1-name>
9749456

>  <reagent1-smiles>
[R1*]N(CCCSC)C

>  <reagent2-name>
12624298

>  <reagent2-smiles>
[R1*]C(=O)C(NC(=O)C)c1cc(Br)ccc1

$$$$
s_2708____11967204____2443830
          04022015093D 1   1.00000     0.00000     0
            
 43 44  0  0  0  0            999 V2000
    0.1374    3.0763    2.5736 O   0  0  0  0  0  0  0  0  0  0  0  0
    1.2755    2.7286    2.7286 C   0  0  0  0  0  0  0  0  0  0  0  0
    2.0196    3.2235    3.8117 N   0  0  0  0  0  0  0  0  0  0  0  0
    1.6687    4.4526    4.5427 C   0  0  3  0  0  0  0  0  0  0  0  0
    0.7101    5.3428    3.7682 C   0  0  0  0  0  0  0  0  0  0  0  0
   -0.6468    5.3242    4.0739 C   0  0  0  0  0  0  0  0  0  0  0  0
   -1.5207    6.1397    3.3622 C   0  0  0  0  0  0  0  0  0  0  0  0
   -1.0355    6.9665    2.3544 C   0  0  0  0  0  0  0  0  0  0  0  0
    0.3219    6.9771    2.0580 C   0  0  0  0  0  0  0  0  0  0  0  0
    1.2058    6.1658    2.7620 C   0  0  0  0  0  0  0  0  0  0  0  0
    2.8987    5.2963    4.8643 C   0  0  0  0  0  0  0  0  0  0  0  0
    2.7836    6.4490    5.2508 O   0  0  0  0  0  0  0  0  0  0  0  0
    4.1876    4.7757    4.6918 N   0  0  0  0  0  0  0  0  0  0  0  0
    4.4367    3.4229    4.1702 C   0  0  0  0  0  0  0  0  0  0  0  0
    3.2091    2.5427    4.3431 C   0  0  0  0  0  0  0  0  0  0  0  0
    1.8487    1.8487    1.8487 N   0  0  0  0  0  0  0  0  0  0  0  0
    1.0000    1.0000    1.0000 C   0  0  3  0  0  0  0  0  0  0  0  0
   -0.3059    0.7075    1.7208 C   0  0  0  0  0  0  0  0  0  0  0  0
   -1.3282    0.4785    2.2851 C   0  0  0  0  0  0  0  0  0  0  0  0
    0.7075    1.7208   -0.3059 C   0  0  0  0  0  0  0  0  0  0  0  0
   -0.1701    0.8432   -1.1834 C   0  0  0  0  0  0  0  0  0  0  0  0
   -0.4626    1.5640   -2.4893 C   0  0  0  0  0  0  0  0  0  0  0  0
    1.2313    4.1928    5.4036 H   0  0  0  0  0  0  0  0  0  0  0  0
   -0.9916    4.7291    4.7998 H   0  0  0  0  0  0  0  0  0  0  0  0
   -2.4977    6.1315    3.5752 H   0  0  0  0  0  0  0  0  0  0  0  0
   -1.6636    7.5532    1.8431 H   0  0  0  0  0  0  0  0  0  0  0  0
    0.6664    7.5729    1.3326 H   0  0  0  0  0  0  0  0  0  0  0  0
    2.1826    6.1741    2.5481 H   0  0  0  0  0  0  0  0  0  0  0  0
    4.9715    5.3477    4.9334 H   0  0  0  0  0  0  0  0  0  0  0  0
    5.2040    3.0165    4.6662 H   0  0  0  0  0  0  0  0  0  0  0  0
    4.6626    3.4830    3.1979 H   0  0  0  0  0  0  0  0  0  0  0  0
    3.3462    1.6836    3.8502 H   0  0  0  0  0  0  0  0  0  0  0  0
    3.0738    2.3514    5.3153 H   0  0  0  0  0  0  0  0  0  0  0  0
    2.8445    1.7838    1.7838 H   0  0  0  0  0  0  0  0  0  0  0  0
    1.4742    0.1409    0.8075 H   0  0  0  0  0  0  0  0  0  0  0  0
   -2.1873    0.2860    2.7593 H   0  0  0  0  0  0  0  0  0  0  0  0
    1.5666    1.9133   -0.7801 H   0  0  0  0  0  0  0  0  0  0  0  0
    0.2333    2.5799   -0.1134 H   0  0  0  0  0  0  0  0  0  0  0  0
   -1.0292    0.6508   -0.7092 H   0  0  0  0  0  0  0  0  0  0  0  0
    0.3041   -0.0159   -1.3759 H   0  0  0  0  0  0  0  0  0  0  0  0
   -1.0400    0.9867   -3.0666 H   0  0  0  0  0  0  0  0  0  0  0  0
   -0.9368    2.4232   -2.2968 H   0  0  0  0  0  0  0  0  0  0  0  0
    0.3965    1.7565   -2.9635 H   0  0  0  0  0  0  0  0  0  0  0  0
  1  2  2  0  0  0  0
  2  3  1  0  0  0  0
  3  4  1  0  0  0  0
  4  5  1  0  0  0  0
  5  6  1  0  0  0  0
  6  7  2  0  0  0  0
  7  8  1  0  0  0  0
  8  9  2  0  0  0  0
  9 10  1  0  0  0  0
 10  5  2  0  0  0  0
  4 11  1  0  0  0  0
 11 12  2  0  0  0  0
 11 13  1  0  0  0  0
 13 14  1  0  0  0  0
 14 15  1  0  0  0  0
 15  3  1  0  0  0  0
  2 16  1  0  0  0  0
 16 17  1  0  0  0  0
 17 18  1  0  0  0  0
 18 19  3  0  0  0  0
 17 20  1  0  0  0  0
 20 21  1  0  0  0  0
 21 22  1  0  0  0  0
  4 23  1  0  0  0  0
  6 24  1  0  0  0  0
  7 25  1  0  0  0  0
  8 26  1  0  0  0  0
  9 27  1  0  0  0  0
 10 28  1  0  0  0  0
 13 29  1  0  0  0  0
 14 30  1  0  0  0  0
 14 31  1  0  0  0  0
 15 32  1  0  0  0  0
 15 33  1  0  0  0  0
 16 34  1  0  0  0  0
 17 35  1  0  0  0  0
 19 36  1  0  0  0  0
 20 37  1  0  0  0  0
 20 38  1  0  0  0  0
 21 39  1  0  0  0  0
 21 40  1  0  0  0  0
 22 41  1  0  0  0  0
 22 42  1  0  0  0  0
 22 43  1  0  0  0  0
M  END
>  <result-rank>
87

>  <similarity>
0.939

>  <query-name>
LIG_A_1101_CCCC[R*]_2

>  <query-smiles>
O=C(NCCCC)[C@@H](NC(=O)C)Cc1ccc(O)cc1

>  <source>
REALspace_2019-12

>  <similarity-descriptor>
0.960;0.995;1.000;0.990;0.990;1.000;1.000;0.897;0.897;0.897;0.897;0.897;0.0;0.100

>  <similarity-descriptor-smiles>
c1ccccc1;O=C;N;C(C)C;C(C)C;C;C;N1CCNC(C1)=O;N1CCNC(C1)=O;N1CCNC(C1)=O;N1CCNC(C1)=O;N1CCNC(C1)=O;;C

>  <reaction-name>
s_2708

>  <reagent1-name>
11967204

>  <reagent1-smiles>
[R1*]C(=O)NC(C#C)CCC

>  <reagent2-name>
2443830

>  <reagent2-smiles>
[R1*]N1C(c2ccccc2)C(=O)NCC1

$$$$
s_22____2440394____17513450
          04022015093D 1   1.00000     0.00000     0
            
 42 42  0  0  0  0            999 V2000
   -2.9917   -0.4331    2.1865 F   0  0  0  0  0  0  0  0  0  0  0  0
   -1.6617   -0.4331    2.1865 C   0  0  0  0  0  0  0  0  0  0  0  0
   -1.2183   -1.0600    1.1005 F   0  0  0  0  0  0  0  0  0  0  0  0
   -1.2183   -1.0600    3.2724 F   0  0  0  0  0  0  0  0  0  0  0  0
   -1.1550    1.0000    2.1865 C   0  0  0  0  0  0  0  0  0  0  0  0
    0.3150    1.0000    2.1865 N   0  0  0  0  0  0  0  0  0  0  0  0
    1.0000    1.0000    1.0000 C   0  0  0  0  0  0  0  0  0  0  0  0
    0.4000    1.0000   -0.0392 O   0  0  0  0  0  0  0  0  0  0  0  0
    2.5200    1.0000    1.0000 C   0  0  3  0  0  0  0  0  0  0  0  0
    3.0100    1.6930   -0.2002 N   0  0  0  0  0  0  0  0  0  0  0  0
    3.2383    3.0434   -0.1663 C   0  0  0  0  0  0  0  0  0  0  0  0
    3.0383    3.6605    0.8432 O   0  0  0  0  0  0  0  0  0  0  0  0
    3.7450    3.7599   -1.4074 C   0  0  0  0  0  0  0  0  0  0  0  0
    3.0267   -0.4331    1.0000 C   0  0  0  0  0  0  0  0  0  0  0  0
    4.5467   -0.4331    1.0000 C   0  0  0  0  0  0  0  0  0  0  0  0
    5.2311   -0.4331    2.2110 C   0  0  0  0  0  0  0  0  0  0  0  0
    6.6219   -0.4338    2.2159 C   0  0  0  0  0  0  0  0  0  0  0  0
    7.3116   -0.4351    1.0075 C   0  0  0  0  0  0  0  0  0  0  0  0
    8.7316   -0.4355    1.0077 O   0  0  0  0  0  0  0  0  0  0  0  0
    6.6320   -0.4347   -0.2063 C   0  0  0  0  0  0  0  0  0  0  0  0
    5.2412   -0.4344   -0.2053 C   0  0  0  0  0  0  0  0  0  0  0  0
    1.0500    1.0000    3.4595 C   0  0  0  0  0  0  0  0  0  0  0  0
    1.3033    2.4331    3.8983 C   0  0  0  0  0  0  0  0  0  0  0  0
   -1.4883    1.4714    1.3700 H   0  0  0  0  0  0  0  0  0  0  0  0
   -1.4883    1.4714    3.0030 H   0  0  0  0  0  0  0  0  0  0  0  0
    2.8533    1.4714    1.8165 H   0  0  0  0  0  0  0  0  0  0  0  0
    3.1767    1.1787   -1.0415 H   0  0  0  0  0  0  0  0  0  0  0  0
    3.8561    3.1005   -2.1510 H   0  0  0  0  0  0  0  0  0  0  0  0
    3.0863    4.4614   -1.6796 H   0  0  0  0  0  0  0  0  0  0  0  0
    4.6259    4.1892   -1.2082 H   0  0  0  0  0  0  0  0  0  0  0  0
    2.6933   -0.9045    1.8165 H   0  0  0  0  0  0  0  0  0  0  0  0
    2.6933   -0.9045    0.1835 H   0  0  0  0  0  0  0  0  0  0  0  0
    4.7256   -0.4325    3.0738 H   0  0  0  0  0  0  0  0  0  0  0  0
    7.1226   -0.4335    3.0815 H   0  0  0  0  0  0  0  0  0  0  0  0
    9.2317   -0.4364    0.1417 H   0  0  0  0  0  0  0  0  0  0  0  0
    7.1374   -0.4347   -1.0692 H   0  0  0  0  0  0  0  0  0  0  0  0
    4.7405   -0.4351   -1.0710 H   0  0  0  0  0  0  0  0  0  0  0  0
    1.9238    0.5286    3.3399 H   0  0  0  0  0  0  0  0  0  0  0  0
    0.5096    0.5286    4.1564 H   0  0  0  0  0  0  0  0  0  0  0  0
    1.8033    2.4331    4.7643 H   0  0  0  0  0  0  0  0  0  0  0  0
    1.8438    2.9045    3.2014 H   0  0  0  0  0  0  0  0  0  0  0  0
    0.4296    2.9045    4.0179 H   0  0  0  0  0  0  0  0  0  0  0  0
  1  2  1  0  0  0  0
  2  3  1  0  0  0  0
  2  4  1  0  0  0  0
  2  5  1  0  0  0  0
  5  6  1  0  0  0  0
  6  7  1  0  0  0  0
  7  8  2  0  0  0  0
  7  9  1  0  0  0  0
  9 10  1  0  0  0  0
 10 11  1  0  0  0  0
 11 12  2  0  0  0  0
 11 13  1  0  0  0  0
  9 14  1  0  0  0  0
 14 15  1  0  0  0  0
 15 16  1  0  0  0  0
 16 17  2  0  0  0  0
 17 18  1  0  0  0  0
 18 19  1  0  0  0  0
 18 20  2  0  0  0  0
 20 21  1  0  0  0  0
 21 15  2  0  0  0  0
  6 22  1  0  0  0  0
 22 23  1  0  0  0  0
  5 24  1  0  0  0  0
  5 25  1  0  0  0  0
  9 26  1  0  0  0  0
 10 27  1  0  0  0  0
 13 28  1  0  0  0  0
 13 29  1  0  0  0  0
 13 30  1  0  0  0  0
 14 31  1  0  0  0  0
 14 32  1  0  0  0  0
 16 33  1  0  0  0  0
 17 34  1  0  0  0  0
 19 35  1  0  0  0  0
 20 36  1  0  0  0  0
 21 37  1  0  0  0  0
 22 38  1  0  0  0  0
 22 39  1  0  0  0  0
 23 40  1  0  0  0  0
 23 41  1  0  0  0  0
 23 42  1  0  0  0  0
M  END
>  <result-rank>
88

>  <similarity>
0.939

>  <query-name>
LIG_A_1101_CCCC[R*]_2

>  <query-smiles>
O=C(NCCCC)[C@@H](NC(=O)C)Cc1ccc(O)cc1

>  <source>
REALspace_2019-12

>  <similarity-descriptor>
1.000;0.852;0.852;0.984;0.984;0.949;0.0;1.000;1.000;1.000;1.000;1.000;1.000;0.077

>  <similarity-descriptor-smiles>
c1ccccc1;C=O;C=O;CNC;CNC;C;;C;N;C=O;C;C;O;FC(F)F

>  <reaction-name>
s_22

>  <reagent1-name>
2440394

>  <reagent1-smiles>
[R1*]N(CC(F)(F)F)CC

>  <reagent2-name>
17513450

>  <reagent2-smiles>
[R1*]C(=O)C(NC(=O)C)Cc1ccc(O)cc1

$$$$
s_11a____7838284____12624296
          04022015093D 1   1.00000     0.00000     0
            
 33 33  0  0  0  0            999 V2000
    4.5183    2.2810   -3.8643 Br  0  0  0  0  0  0  0  0  0  0  0  0
    3.9141    0.9881   -2.5211 C   0  0  0  0  0  0  0  0  0  0  0  0
    3.4515    1.4403   -1.2902 C   0  0  0  0  0  0  0  0  0  0  0  0
    3.0268    0.5098   -0.3469 C   0  0  0  0  0  0  0  0  0  0  0  0
    3.0601   -0.8534   -0.6203 C   0  0  0  0  0  0  0  0  0  0  0  0
    3.5272   -1.2841   -1.8577 C   0  0  0  0  0  0  0  0  0  0  0  0
    3.9564   -0.3707   -2.8148 C   0  0  0  0  0  0  0  0  0  0  0  0
    2.5200    1.0000    1.0000 C   0  0  3  0  0  0  0  0  0  0  0  0
    3.0100    0.1091    2.0617 N   0  0  0  0  0  0  0  0  0  0  0  0
    3.7976    0.6082    3.0654 C   0  0  0  0  0  0  0  0  0  0  0  0
    4.0875    1.7726    3.0779 O   0  0  0  0  0  0  0  0  0  0  0  0
    4.3043   -0.3129    4.1632 C   0  0  0  0  0  0  0  0  0  0  0  0
    1.0000    1.0000    1.0000 C   0  0  0  0  0  0  0  0  0  0  0  0
    0.4000    1.0000   -0.0392 O   0  0  0  0  0  0  0  0  0  0  0  0
    0.3150    1.0000    2.1865 N   0  0  0  0  0  0  0  0  0  0  0  0
   -1.1550    1.0000    2.1865 C   0  0  3  0  0  0  0  0  0  0  0  0
   -1.6617   -0.2411    2.9030 C   0  0  0  0  0  0  0  0  0  0  0  0
   -2.0417   -1.1719    3.4404 N   0  0  0  0  0  0  0  0  0  0  0  0
   -1.6617    2.2411    2.9030 C   0  0  0  0  0  0  0  0  0  0  0  0
    3.4245    2.4189   -1.0861 H   0  0  0  0  0  0  0  0  0  0  0  0
    2.7525   -1.5151    0.0635 H   0  0  0  0  0  0  0  0  0  0  0  0
    3.5547   -2.2627   -2.0617 H   0  0  0  0  0  0  0  0  0  0  0  0
    4.2910   -0.6868   -3.7026 H   0  0  0  0  0  0  0  0  0  0  0  0
    2.8533    1.9285    1.1637 H   0  0  0  0  0  0  0  0  0  0  0  0
    2.7684   -0.8612    2.0513 H   0  0  0  0  0  0  0  0  0  0  0  0
    3.9710   -1.2414    3.9995 H   0  0  0  0  0  0  0  0  0  0  0  0
    5.3043   -0.3129    4.1632 H   0  0  0  0  0  0  0  0  0  0  0  0
    3.9710    0.0095    5.0491 H   0  0  0  0  0  0  0  0  0  0  0  0
    0.8150    1.0000    3.0525 H   0  0  0  0  0  0  0  0  0  0  0  0
   -1.4883    1.0000    1.2436 H   0  0  0  0  0  0  0  0  0  0  0  0
   -2.6617    2.2411    2.9030 H   0  0  0  0  0  0  0  0  0  0  0  0
   -1.3283    2.2411    3.8458 H   0  0  0  0  0  0  0  0  0  0  0  0
   -1.3283    3.0576    2.4316 H   0  0  0  0  0  0  0  0  0  0  0  0
  1  2  1  0  0  0  0
  2  3  1  0  0  0  0
  3  4  2  0  0  0  0
  4  5  1  0  0  0  0
  5  6  2  0  0  0  0
  6  7  1  0  0  0  0
  7  2  2  0  0  0  0
  4  8  1  0  0  0  0
  8  9  1  0  0  0  0
  9 10  1  0  0  0  0
 10 11  2  0  0  0  0
 10 12  1  0  0  0  0
  8 13  1  0  0  0  0
 13 14  2  0  0  0  0
 13 15  1  0  0  0  0
 15 16  1  0  0  0  0
 16 17  1  0  0  0  0
 17 18  3  0  0  0  0
 16 19  1  0  0  0  0
  3 20  1  0  0  0  0
  5 21  1  0  0  0  0
  6 22  1  0  0  0  0
  7 23  1  0  0  0  0
  8 24  1  0  0  0  0
  9 25  1  0  0  0  0
 12 26  1  0  0  0  0
 12 27  1  0  0  0  0
 12 28  1  0  0  0  0
 15 29  1  0  0  0  0
 16 30  1  0  0  0  0
 19 31  1  0  0  0  0
 19 32  1  0  0  0  0
 19 33  1  0  0  0  0
M  END
>  <result-rank>
89

>  <similarity>
0.939

>  <query-name>
LIG_A_1101_CCCC[R*]_2

>  <query-smiles>
O=C(NCCCC)[C@@H](NC(=O)C)Cc1ccc(O)cc1

>  <source>
REALspace_2019-12

>  <similarity-descriptor>
0.969;1.000;1.000;0.930;0.949;0.0;0.0;1.000;1.000;1.000;1.000;0.969;0.0;0.100

>  <similarity-descriptor-smiles>
Brc1ccccc1;C=O;N;C;C;;;C;N;C=O;C;Brc1ccccc1;;C#N

>  <reaction-name>
s_11a

>  <reagent1-name>
7838284

>  <reagent1-smiles>
[R1*]NC(C#N)C

>  <reagent2-name>
12624296

>  <reagent2-smiles>
[R1*]C(=O)C(NC(=O)C)c1cc(Br)ccc1

$$$$
s_22____14597438____17513450
          04022015093D 1   1.00000     0.00000     0
            
 47 48  0  0  0  0            999 V2000
    0.4000   -0.0392    1.0000 O   0  0  0  0  0  0  0  0  0  0  0  0
    1.0000    1.0000    1.0000 C   0  0  0  0  0  0  0  0  0  0  0  0
    2.3700    1.0000    1.0000 N   0  0  0  0  0  0  0  0  0  0  0  0
    3.1050   -0.2731    1.0000 C   0  0  0  0  0  0  0  0  0  0  0  0
    3.3583   -0.7118   -0.4331 C   0  0  0  0  0  0  0  0  0  0  0  0
    4.0683   -1.9416   -0.4331 O   0  0  0  0  0  0  0  0  0  0  0  0
    4.3048   -2.3511   -1.7706 C   0  0  0  0  0  0  0  0  0  0  0  0
    5.1150   -1.3376   -2.5269 C   0  0  0  0  0  0  0  0  0  0  0  0
    3.6355   -1.4420   -2.7620 C   0  0  0  0  0  0  0  0  0  0  0  0
    3.1050    2.2731    1.0000 C   0  0  0  0  0  0  0  0  0  0  0  0
    0.2400    2.3164    1.0000 C   0  0  3  0  0  0  0  0  0  0  0  0
   -1.0444    2.1406    1.6930 N   0  0  0  0  0  0  0  0  0  0  0  0
   -1.1292    2.3553    3.0434 C   0  0  0  0  0  0  0  0  0  0  0  0
   -0.1550    2.6868    3.6605 O   0  0  0  0  0  0  0  0  0  0  0  0
   -2.4574    2.1735    3.7599 C   0  0  0  0  0  0  0  0  0  0  0  0
   -0.0133    2.7551   -0.4331 C   0  0  0  0  0  0  0  0  0  0  0  0
   -0.7734    4.0715   -0.4331 C   0  0  0  0  0  0  0  0  0  0  0  0
   -0.0668    5.2697   -0.4331 C   0  0  0  0  0  0  0  0  0  0  0  0
   -0.7580    6.4767   -0.4338 C   0  0  0  0  0  0  0  0  0  0  0  0
   -2.1493    6.4698   -0.4351 C   0  0  0  0  0  0  0  0  0  0  0  0
   -2.8591    7.6996   -0.4355 O   0  0  0  0  0  0  0  0  0  0  0  0
   -2.8607    5.2743   -0.4347 C   0  0  0  0  0  0  0  0  0  0  0  0
   -2.1644    4.0703   -0.4344 C   0  0  0  0  0  0  0  0  0  0  0  0
    2.5646   -0.9700    1.4714 H   0  0  0  0  0  0  0  0  0  0  0  0
    3.9788   -0.1535    1.4714 H   0  0  0  0  0  0  0  0  0  0  0  0
    2.4846   -0.8314   -0.9045 H   0  0  0  0  0  0  0  0  0  0  0  0
    3.8988   -0.0149   -0.9045 H   0  0  0  0  0  0  0  0  0  0  0  0
    4.4069   -3.3235   -1.9804 H   0  0  0  0  0  0  0  0  0  0  0  0
    5.7559   -1.6367   -3.2339 H   0  0  0  0  0  0  0  0  0  0  0  0
    5.4907   -0.5422   -2.0513 H   0  0  0  0  0  0  0  0  0  0  0  0
    3.0260   -0.7163   -2.4429 H   0  0  0  0  0  0  0  0  0  0  0  0
    3.2912   -1.8107   -3.6255 H   0  0  0  0  0  0  0  0  0  0  0  0
    4.0882    2.0903    1.0000 H   0  0  0  0  0  0  0  0  0  0  0  0
    2.8634    2.7974    0.1835 H   0  0  0  0  0  0  0  0  0  0  0  0
    2.8634    2.7974    1.8165 H   0  0  0  0  0  0  0  0  0  0  0  0
    0.7804    3.0133    1.4714 H   0  0  0  0  0  0  0  0  0  0  0  0
   -1.8563    1.8643    1.1787 H   0  0  0  0  0  0  0  0  0  0  0  0
   -3.1569    1.8980    3.1005 H   0  0  0  0  0  0  0  0  0  0  0  0
   -2.3637    1.4670    4.4614 H   0  0  0  0  0  0  0  0  0  0  0  0
   -2.7253    3.0361    4.1892 H   0  0  0  0  0  0  0  0  0  0  0  0
    0.8604    2.8747   -0.9045 H   0  0  0  0  0  0  0  0  0  0  0  0
   -0.5538    2.0582   -0.9045 H   0  0  0  0  0  0  0  0  0  0  0  0
    0.9332    5.2634   -0.4325 H   0  0  0  0  0  0  0  0  0  0  0  0
   -0.2586    7.3431   -0.4335 H   0  0  0  0  0  0  0  0  0  0  0  0
   -3.8591    7.6997   -0.4364 H   0  0  0  0  0  0  0  0  0  0  0  0
   -3.8607    5.2805   -0.4347 H   0  0  0  0  0  0  0  0  0  0  0  0
   -2.6638    3.2039   -0.4351 H   0  0  0  0  0  0  0  0  0  0  0  0
  1  2  2  0  0  0  0
  2  3  1  0  0  0  0
  3  4  1  0  0  0  0
  4  5  1  0  0  0  0
  5  6  1  0  0  0  0
  6  7  1  0  0  0  0
  7  8  1  0  0  0  0
  8  9  1  0  0  0  0
  9  7  1  0  0  0  0
  3 10  1  0  0  0  0
  2 11  1  0  0  0  0
 11 12  1  0  0  0  0
 12 13  1  0  0  0  0
 13 14  2  0  0  0  0
 13 15  1  0  0  0  0
 11 16  1  0  0  0  0
 16 17  1  0  0  0  0
 17 18  1  0  0  0  0
 18 19  2  0  0  0  0
 19 20  1  0  0  0  0
 20 21  1  0  0  0  0
 20 22  2  0  0  0  0
 22 23  1  0  0  0  0
 23 17  2  0  0  0  0
  4 24  1  0  0  0  0
  4 25  1  0  0  0  0
  5 26  1  0  0  0  0
  5 27  1  0  0  0  0
  7 28  1  0  0  0  0
  8 29  1  0  0  0  0
  8 30  1  0  0  0  0
  9 31  1  0  0  0  0
  9 32  1  0  0  0  0
 10 33  1  0  0  0  0
 10 34  1  0  0  0  0
 10 35  1  0  0  0  0
 11 36  1  0  0  0  0
 12 37  1  0  0  0  0
 15 38  1  0  0  0  0
 15 39  1  0  0  0  0
 15 40  1  0  0  0  0
 16 41  1  0  0  0  0
 16 42  1  0  0  0  0
 18 43  1  0  0  0  0
 19 44  1  0  0  0  0
 21 45  1  0  0  0  0
 22 46  1  0  0  0  0
 23 47  1  0  0  0  0
M  END
>  <result-rank>
90

>  <similarity>
0.938

>  <query-name>
LIG_A_1101_CCCC[R*]_2

>  <query-smiles>
O=C(NCCCC)[C@@H](NC(=O)C)Cc1ccc(O)cc1

>  <source>
REALspace_2019-12

>  <similarity-descriptor>
1.000;0.852;0.852;0.983;0.983;0.945;0.0;1.000;1.000;1.000;1.000;1.000;1.000;0.143

>  <similarity-descriptor-smiles>
c1ccccc1;O=C;O=C;NCC;NCC;C;;C;N;C=O;C;C;O;C1CC1.O

>  <reaction-name>
s_22

>  <reagent1-name>
14597438

>  <reagent1-smiles>
[R1*]N(CCOC1CC1)C

>  <reagent2-name>
17513450

>  <reagent2-smiles>
[R1*]C(=O)C(NC(=O)C)Cc1ccc(O)cc1

$$$$
s_22____16911156____3703044
          04022015093D 1   1.00000     0.00000     0
            
 50 50  0  0  0  0            999 V2000
   -3.2384   -4.7992    3.1992 Br  0  0  0  0  0  0  0  0  0  0  0  0
   -2.5844   -2.9796    2.8788 C   0  0  0  0  0  0  0  0  0  0  0  0
   -2.3540   -2.5496    1.5760 C   0  0  0  0  0  0  0  0  0  0  0  0
   -1.8898   -1.2571    1.3549 C   0  0  0  0  0  0  0  0  0  0  0  0
   -1.6616   -0.4112    2.4353 C   0  0  0  0  0  0  0  0  0  0  0  0
   -1.8942   -0.8477    3.7357 C   0  0  0  0  0  0  0  0  0  0  0  0
   -2.3583   -2.1391    3.9645 C   0  0  0  0  0  0  0  0  0  0  0  0
   -1.1550    1.0000    2.1865 C   0  0  0  0  0  0  0  0  0  0  0  0
    0.3150    1.0000    2.1865 N   0  0  0  0  0  0  0  0  0  0  0  0
    1.0000    1.0000    1.0000 C   0  0  0  0  0  0  0  0  0  0  0  0
    0.4000    1.0000   -0.0392 O   0  0  0  0  0  0  0  0  0  0  0  0
    2.5200    1.0000    1.0000 C   0  0  0  0  0  0  0  0  0  0  0  0
    3.0100    1.8909   -0.0617 N   0  3  3  0  0  0  0  0  0  0  0  0
    2.9464    3.2849    0.4003 C   0  0  0  0  0  0  0  0  0  0  0  0
    3.2749    4.2169   -0.7547 C   0  0  0  0  0  0  0  0  0  0  0  0
    3.2092    5.6584   -0.2770 C   0  0  0  0  0  0  0  0  0  0  0  0
    4.4012    1.5456   -0.3877 C   0  0  0  0  0  0  0  0  0  0  0  0
    1.0500    1.0000    3.4595 C   0  0  0  0  0  0  0  0  0  0  0  0
    1.3033    2.4331    3.8983 C   0  0  0  0  0  0  0  0  0  0  0  0
    0.9134    3.3452    3.2230 O   0  0  0  0  0  0  0  0  0  0  0  0
    1.9768    2.6834    5.0648 N   0  0  0  0  0  0  0  0  0  0  0  0
    2.2218    4.0693    5.4891 C   0  0  0  0  0  0  0  0  0  0  0  0
    2.4544    1.5661    5.8920 C   0  0  0  0  0  0  0  0  0  0  0  0
    2.4402    1.7834   -0.8764 H   0  0  0  0  0  0  0  0  0  0  0  0
   -2.5206   -3.1644    0.8052 H   0  0  0  0  0  0  0  0  0  0  0  0
   -1.7208   -0.9372    0.4226 H   0  0  0  0  0  0  0  0  0  0  0  0
   -1.7276   -0.2328    4.5065 H   0  0  0  0  0  0  0  0  0  0  0  0
   -2.5271   -2.4590    4.8968 H   0  0  0  0  0  0  0  0  0  0  0  0
   -1.4883    1.3225    1.3005 H   0  0  0  0  0  0  0  0  0  0  0  0
   -1.4883    1.6060    2.9087 H   0  0  0  0  0  0  0  0  0  0  0  0
    2.8533    1.3225    1.8860 H   0  0  0  0  0  0  0  0  0  0  0  0
    2.8533    0.0715    0.8363 H   0  0  0  0  0  0  0  0  0  0  0  0
    3.6077    3.4222    1.1378 H   0  0  0  0  0  0  0  0  0  0  0  0
    2.0258    3.4829    0.7369 H   0  0  0  0  0  0  0  0  0  0  0  0
    2.6136    4.0797   -1.4922 H   0  0  0  0  0  0  0  0  0  0  0  0
    4.1955    4.0189   -1.0913 H   0  0  0  0  0  0  0  0  0  0  0  0
    3.4253    6.2715   -1.0368 H   0  0  0  0  0  0  0  0  0  0  0  0
    2.2886    5.8564    0.0596 H   0  0  0  0  0  0  0  0  0  0  0  0
    3.8704    5.7956    0.4605 H   0  0  0  0  0  0  0  0  0  0  0  0
    4.7345    2.1517   -1.1100 H   0  0  0  0  0  0  0  0  0  0  0  0
    4.9710    1.6531    0.4270 H   0  0  0  0  0  0  0  0  0  0  0  0
    4.4444    0.5973   -0.7020 H   0  0  0  0  0  0  0  0  0  0  0  0
    1.9238    0.5286    3.3399 H   0  0  0  0  0  0  0  0  0  0  0  0
    0.5096    0.5286    4.1564 H   0  0  0  0  0  0  0  0  0  0  0  0
    2.7218    4.0693    6.3552 H   0  0  0  0  0  0  0  0  0  0  0  0
    2.7622    4.5407    4.7922 H   0  0  0  0  0  0  0  0  0  0  0  0
    1.3480    4.5407    5.6087 H   0  0  0  0  0  0  0  0  0  0  0  0
    2.9210    1.9254    6.7002 H   0  0  0  0  0  0  0  0  0  0  0  0
    1.6765    1.0064    6.1776 H   0  0  0  0  0  0  0  0  0  0  0  0
    3.0907    1.0064    5.3611 H   0  0  0  0  0  0  0  0  0  0  0  0
  1  2  1  0  0  0  0
  2  3  1  0  0  0  0
  3  4  2  0  0  0  0
  4  5  1  0  0  0  0
  5  6  2  0  0  0  0
  6  7  1  0  0  0  0
  7  2  2  0  0  0  0
  5  8  1  0  0  0  0
  8  9  1  0  0  0  0
  9 10  1  0  0  0  0
 10 11  2  0  0  0  0
 10 12  1  0  0  0  0
 12 13  1  0  0  0  0
 13 14  1  0  0  0  0
 14 15  1  0  0  0  0
 15 16  1  0  0  0  0
 13 17  1  0  0  0  0
  9 18  1  0  0  0  0
 18 19  1  0  0  0  0
 19 20  2  0  0  0  0
 19 21  1  0  0  0  0
 21 22  1  0  0  0  0
 21 23  1  0  0  0  0
 13 24  1  0  0  0  0
  3 25  1  0  0  0  0
  4 26  1  0  0  0  0
  6 27  1  0  0  0  0
  7 28  1  0  0  0  0
  8 29  1  0  0  0  0
  8 30  1  0  0  0  0
 12 31  1  0  0  0  0
 12 32  1  0  0  0  0
 14 33  1  0  0  0  0
 14 34  1  0  0  0  0
 15 35  1  0  0  0  0
 15 36  1  0  0  0  0
 16 37  1  0  0  0  0
 16 38  1  0  0  0  0
 16 39  1  0  0  0  0
 17 40  1  0  0  0  0
 17 41  1  0  0  0  0
 17 42  1  0  0  0  0
 18 43  1  0  0  0  0
 18 44  1  0  0  0  0
 22 45  1  0  0  0  0
 22 46  1  0  0  0  0
 22 47  1  0  0  0  0
 23 48  1  0  0  0  0
 23 49  1  0  0  0  0
 23 50  1  0  0  0  0
M  CHG  1  13   1
M  END
>  <result-rank>
91

>  <similarity>
0.938

>  <query-name>
LIG_A_1101_CCCC[R*]_2

>  <query-smiles>
O=C(NCCCC)[C@@H](NC(=O)C)Cc1ccc(O)cc1

>  <source>
REALspace_2019-12

>  <similarity-descriptor>
0.962;1.000;0.983;0.983;0.993;1.000;1.000;0.953;0.852;0.852;0.977;0.953;0.0;0.133

>  <similarity-descriptor-smiles>
Brc1ccccc1;C=O;C[NH+];C[NH+];C;C;C;CNC;C=O;C=O;NC;CNC;;C.C

>  <reaction-name>
s_22

>  <reagent1-name>
16911156

>  <reagent1-smiles>
[R1*]N(Cc1ccc(Br)cc1)CC(=O)N(C)C

>  <reagent2-name>
3703044

>  <reagent2-smiles>
[R1*]C(=O)CN(CCC)C

$$$$
s_527a____17514474____17513452
          04022015093D 1   1.00000     0.00000     0
            
 42 44  0  0  0  0            999 V2000
    3.0596    1.6786    1.9338 O   0  0  0  0  0  0  0  0  0  0  0  0
    1.8776    1.8776    1.8776 C   0  0  0  0  0  0  0  0  0  0  0  0
    1.3078    2.9162    2.6190 N   0  0  0  0  0  0  0  0  0  0  0  0
   -0.0320    3.4800    2.8310 C   0  0  0  0  0  0  0  0  0  0  0  0
    0.6119    4.7268    3.3804 C   0  0  0  0  0  0  0  0  0  0  0  0
    0.0623    5.5627    4.5094 C   0  0  3  0  0  0  0  0  0  0  0  0
   -1.4254    5.3579    4.7861 C   0  0  0  0  0  0  0  0  0  0  0  0
   -2.5360    5.2049    4.9927 N   0  0  0  0  0  0  0  0  0  0  0  0
    0.2913    6.1766    3.1590 C   0  0  0  0  0  0  0  0  0  0  0  0
    1.8366    3.8658    3.5970 C   0  0  0  0  0  0  0  0  0  0  0  0
    1.0000    1.0000    1.0000 C   0  0  3  0  0  0  0  0  0  0  0  0
   -0.2629    0.7171    1.6971 N   0  0  0  0  0  0  0  0  0  0  0  0
   -0.6150   -0.5766    1.9787 C   0  0  0  0  0  0  0  0  0  0  0  0
    0.1075   -1.4788    1.6563 O   0  0  0  0  0  0  0  0  0  0  0  0
   -1.9209   -0.8691    2.6995 C   0  0  0  0  0  0  0  0  0  0  0  0
    0.7075    1.7208   -0.3059 C   0  0  0  0  0  0  0  0  0  0  0  0
   -0.1701    0.8432   -1.1835 C   0  0  0  0  0  0  0  0  0  0  0  0
   -1.5540    0.9425   -1.0842 C   0  0  0  0  0  0  0  0  0  0  0  0
   -2.3610    0.1420   -1.8857 C   0  0  0  0  0  0  0  0  0  0  0  0
   -1.7726   -0.7486   -2.7781 C   0  0  0  0  0  0  0  0  0  0  0  0
   -2.5520   -1.5276   -3.5577 O   0  0  0  0  0  0  0  0  0  0  0  0
   -0.3891   -0.8520   -2.8811 C   0  0  0  0  0  0  0  0  0  0  0  0
    0.4131   -0.0489   -2.0774 C   0  0  0  0  0  0  0  0  0  0  0  0
   -0.5902    2.9787    3.4921 H   0  0  0  0  0  0  0  0  0  0  0  0
   -0.5567    3.6226    1.9918 H   0  0  0  0  0  0  0  0  0  0  0  0
    0.6664    5.8143    5.2656 H   0  0  0  0  0  0  0  0  0  0  0  0
   -0.4889    6.4340    2.5889 H   0  0  0  0  0  0  0  0  0  0  0  0
    1.0307    6.8374    3.0300 H   0  0  0  0  0  0  0  0  0  0  0  0
    2.6972    4.2983    3.3280 H   0  0  0  0  0  0  0  0  0  0  0  0
    1.9235    3.4983    4.5230 H   0  0  0  0  0  0  0  0  0  0  0  0
    1.4742    0.1409    0.8075 H   0  0  0  0  0  0  0  0  0  0  0  0
   -0.8650    1.4689    1.9658 H   0  0  0  0  0  0  0  0  0  0  0  0
   -2.3951   -0.0100    2.8919 H   0  0  0  0  0  0  0  0  0  0  0  0
   -2.4982   -1.4465    2.1221 H   0  0  0  0  0  0  0  0  0  0  0  0
   -1.7284   -1.3433    3.5586 H   0  0  0  0  0  0  0  0  0  0  0  0
    0.2333    2.5799   -0.1134 H   0  0  0  0  0  0  0  0  0  0  0  0
    1.5666    1.9133   -0.7801 H   0  0  0  0  0  0  0  0  0  0  0  0
   -1.9667    1.5862   -0.4397 H   0  0  0  0  0  0  0  0  0  0  0  0
   -3.3569    0.2061   -1.8211 H   0  0  0  0  0  0  0  0  0  0  0  0
   -2.1337   -2.1692   -4.2005 H   0  0  0  0  0  0  0  0  0  0  0  0
    0.0237   -1.4961   -3.5251 H   0  0  0  0  0  0  0  0  0  0  0  0
    1.4089   -0.1127   -2.1423 H   0  0  0  0  0  0  0  0  0  0  0  0
  1  2  2  0  0  0  0
  2  3  1  0  0  0  0
  3  4  1  0  0  0  0
  4  5  1  0  0  0  0
  5  6  1  0  0  0  0
  6  7  1  0  0  0  0
  7  8  3  0  0  0  0
  6  9  1  0  0  0  0
  9  5  1  0  0  0  0
  5 10  1  0  0  0  0
 10  3  1  0  0  0  0
  2 11  1  0  0  0  0
 11 12  1  0  0  0  0
 12 13  1  0  0  0  0
 13 14  2  0  0  0  0
 13 15  1  0  0  0  0
 11 16  1  0  0  0  0
 16 17  1  0  0  0  0
 17 18  1  0  0  0  0
 18 19  2  0  0  0  0
 19 20  1  0  0  0  0
 20 21  1  0  0  0  0
 20 22  2  0  0  0  0
 22 23  1  0  0  0  0
 23 17  2  0  0  0  0
  4 24  1  0  0  0  0
  4 25  1  0  0  0  0
  6 26  1  0  0  0  0
  9 27  1  0  0  0  0
  9 28  1  0  0  0  0
 10 29  1  0  0  0  0
 10 30  1  0  0  0  0
 11 31  1  0  0  0  0
 12 32  1  0  0  0  0
 15 33  1  0  0  0  0
 15 34  1  0  0  0  0
 15 35  1  0  0  0  0
 16 36  1  0  0  0  0
 16 37  1  0  0  0  0
 18 38  1  0  0  0  0
 19 39  1  0  0  0  0
 21 40  1  0  0  0  0
 22 41  1  0  0  0  0
 23 42  1  0  0  0  0
M  END
>  <result-rank>
92

>  <similarity>
0.938

>  <query-name>
LIG_A_1101_CCCC[R*]_2

>  <query-smiles>
O=C(NCCCC)[C@@H](NC(=O)C)Cc1ccc(O)cc1

>  <source>
REALspace_2019-12

>  <similarity-descriptor>
1.000;0.852;0.852;0.884;0.884;0.867;0.867;1.000;1.000;1.000;1.000;1.000;1.000;0.091

>  <similarity-descriptor-smiles>
c1ccccc1;O=C;O=C;N1CCC1;N1CCC1;C1CC1;C1CC1;C;N;C=O;C;C;O;C#N

>  <reaction-name>
s_527a

>  <reagent1-name>
17514474

>  <reagent1-smiles>
[R1*]N1CC2(C(C#N)C2)C1

>  <reagent2-name>
17513452

>  <reagent2-smiles>
[R1*]C(=O)C(NC(=O)C)Cc1ccc(O)cc1

$$$$
s_22____2067946____59693
          04022015093D 1   1.00000     0.00000     0
            
 45 45  0  0  0  0            999 V2000
    0.4000   -0.0392    1.0000 O   0  0  0  0  0  0  0  0  0  0  0  0
    1.0000    1.0000    1.0000 C   0  0  0  0  0  0  0  0  0  0  0  0
    2.3700    1.0000    1.0000 N   0  0  0  0  0  0  0  0  0  0  0  0
    3.1050   -0.2731    1.0000 C   0  0  0  0  0  0  0  0  0  0  0  0
    3.3583   -0.7118   -0.4331 C   0  0  0  0  0  0  0  0  0  0  0  0
    4.1183   -2.0282   -0.4331 C   0  0  0  0  0  0  0  0  0  0  0  0
    4.3550   -2.4381   -1.7719 O   0  0  0  0  0  0  0  0  0  0  0  0
    5.0650   -3.6679   -1.7719 C   0  0  0  0  0  0  0  0  0  0  0  0
    3.1050    2.2731    1.0000 C   0  0  0  0  0  0  0  0  0  0  0  0
    0.2400    2.3164    1.0000 C   0  0  0  0  0  0  0  0  0  0  0  0
   -1.2356    2.0495    1.2488 C   0  0  3  0  0  0  0  0  0  0  0  0
   -1.9078    3.3074    1.6048 N   0  0  0  0  0  0  0  0  0  0  0  0
   -2.5369    3.4290    2.8157 C   0  0  0  0  0  0  0  0  0  0  0  0
   -2.5392    2.5087    3.5858 O   0  0  0  0  0  0  0  0  0  0  0  0
   -3.2320    4.7297    3.1838 C   0  0  0  0  0  0  0  0  0  0  0  0
   -1.8663    1.4765   -0.0102 C   0  0  0  0  0  0  0  0  0  0  0  0
   -1.8028    2.1937   -1.2004 C   0  0  0  0  0  0  0  0  0  0  0  0
   -2.3819    1.6661   -2.3499 C   0  0  0  0  0  0  0  0  0  0  0  0
   -3.0174    0.4297   -2.3040 C   0  0  0  0  0  0  0  0  0  0  0  0
   -3.0743   -0.2780   -1.1097 C   0  0  0  0  0  0  0  0  0  0  0  0
   -2.4996    0.2390    0.0468 C   0  0  0  0  0  0  0  0  0  0  0  0
    2.5646   -0.9700    1.4714 H   0  0  0  0  0  0  0  0  0  0  0  0
    3.9788   -0.1535    1.4714 H   0  0  0  0  0  0  0  0  0  0  0  0
    2.4846   -0.8314   -0.9045 H   0  0  0  0  0  0  0  0  0  0  0  0
    3.8988   -0.0149   -0.9045 H   0  0  0  0  0  0  0  0  0  0  0  0
    4.9921   -1.9086    0.0383 H   0  0  0  0  0  0  0  0  0  0  0  0
    3.5779   -2.7251    0.0383 H   0  0  0  0  0  0  0  0  0  0  0  0
    5.2317   -3.9566   -2.7147 H   0  0  0  0  0  0  0  0  0  0  0  0
    5.9388   -3.5483   -1.3005 H   0  0  0  0  0  0  0  0  0  0  0  0
    4.5246   -4.3648   -1.3005 H   0  0  0  0  0  0  0  0  0  0  0  0
    4.0882    2.0903    1.0000 H   0  0  0  0  0  0  0  0  0  0  0  0
    2.8634    2.7974    0.1835 H   0  0  0  0  0  0  0  0  0  0  0  0
    2.8634    2.7974    1.8165 H   0  0  0  0  0  0  0  0  0  0  0  0
    0.3526    2.7663    0.1140 H   0  0  0  0  0  0  0  0  0  0  0  0
    0.5982    2.9080    1.7222 H   0  0  0  0  0  0  0  0  0  0  0  0
   -1.3341    1.3951    1.9985 H   0  0  0  0  0  0  0  0  0  0  0  0
   -1.9058    4.0743    0.9631 H   0  0  0  0  0  0  0  0  0  0  0  0
   -3.1334    5.3841    2.4341 H   0  0  0  0  0  0  0  0  0  0  0  0
   -4.2028    4.5541    3.3476 H   0  0  0  0  0  0  0  0  0  0  0  0
   -2.8171    5.1066    4.0120 H   0  0  0  0  0  0  0  0  0  0  0  0
   -1.3442    3.0818   -1.2295 H   0  0  0  0  0  0  0  0  0  0  0  0
   -2.3414    2.1758   -3.2093 H   0  0  0  0  0  0  0  0  0  0  0  0
   -3.4332    0.0501   -3.1305 H   0  0  0  0  0  0  0  0  0  0  0  0
   -3.5323   -1.1665   -1.0812 H   0  0  0  0  0  0  0  0  0  0  0  0
   -2.5409   -0.2710    0.9060 H   0  0  0  0  0  0  0  0  0  0  0  0
  1  2  2  0  0  0  0
  2  3  1  0  0  0  0
  3  4  1  0  0  0  0
  4  5  1  0  0  0  0
  5  6  1  0  0  0  0
  6  7  1  0  0  0  0
  7  8  1  0  0  0  0
  3  9  1  0  0  0  0
  2 10  1  0  0  0  0
 10 11  1  0  0  0  0
 11 12  1  0  0  0  0
 12 13  1  0  0  0  0
 13 14  2  0  0  0  0
 13 15  1  0  0  0  0
 11 16  1  0  0  0  0
 16 17  1  0  0  0  0
 17 18  2  0  0  0  0
 18 19  1  0  0  0  0
 19 20  2  0  0  0  0
 20 21  1  0  0  0  0
 21 16  2  0  0  0  0
  4 22  1  0  0  0  0
  4 23  1  0  0  0  0
  5 24  1  0  0  0  0
  5 25  1  0  0  0  0
  6 26  1  0  0  0  0
  6 27  1  0  0  0  0
  8 28  1  0  0  0  0
  8 29  1  0  0  0  0
  8 30  1  0  0  0  0
  9 31  1  0  0  0  0
  9 32  1  0  0  0  0
  9 33  1  0  0  0  0
 10 34  1  0  0  0  0
 10 35  1  0  0  0  0
 11 36  1  0  0  0  0
 12 37  1  0  0  0  0
 15 38  1  0  0  0  0
 15 39  1  0  0  0  0
 15 40  1  0  0  0  0
 17 41  1  0  0  0  0
 18 42  1  0  0  0  0
 19 43  1  0  0  0  0
 20 44  1  0  0  0  0
 21 45  1  0  0  0  0
M  END
>  <result-rank>
93

>  <similarity>
0.938

>  <query-name>
LIG_A_1101_CCCC[R*]_2

>  <query-smiles>
O=C(NCCCC)[C@@H](NC(=O)C)Cc1ccc(O)cc1

>  <source>
REALspace_2019-12

>  <similarity-descriptor>
0.960;0.852;0.852;0.959;0.959;1.000;0.956;1.000;1.000;1.000;1.000;1.000;0.0;0.143

>  <similarity-descriptor-smiles>
c1ccccc1;O=C;O=C;N(C)C;N(C)C;C;C;CC;N;C=O;C;CC;;O.C

>  <reaction-name>
s_22

>  <reagent1-name>
2067946

>  <reagent1-smiles>
[R1*]N(CCCOC)C

>  <reagent2-name>
59693

>  <reagent2-smiles>
[R1*]C(=O)CC(NC(=O)C)c1ccccc1

$$$$
s_527a____1027272____17057110
          04022015093D 1   1.00000     0.00000     0
            
 54 54  0  0  0  0            999 V2000
   -3.7850    1.0000    5.3260 S   0  0  0  0  0  0  0  0  0  0  0  0
   -3.3050    2.1758    6.0048 O   0  0  0  0  0  0  0  0  0  0  0  0
   -5.2250    1.0000    5.3260 O   0  0  0  0  0  0  0  0  0  0  0  0
   -3.1817    1.0000    3.6195 C   0  0  0  0  0  0  0  0  0  0  0  0
   -1.6617    1.0000    3.6195 C   0  0  0  0  0  0  0  0  0  0  0  0
   -1.1550    1.0000    2.1865 C   0  0  0  0  0  0  0  0  0  0  0  0
    0.3150    1.0000    2.1865 N   0  0  0  0  0  0  0  0  0  0  0  0
    1.0000    1.0000    1.0000 C   0  0  0  0  0  0  0  0  0  0  0  0
    0.4000    1.0000   -0.0392 O   0  0  0  0  0  0  0  0  0  0  0  0
    2.5200    1.0000    1.0000 C   0  0  3  0  0  0  0  0  0  0  0  0
    3.0100    1.0000   -0.3859 N   0  0  0  0  0  0  0  0  0  0  0  0
    3.7976   -0.0275   -0.8340 C   0  0  0  0  0  0  0  0  0  0  0  0
    4.0138   -0.9711   -0.1248 O   0  0  0  0  0  0  0  0  0  0  0  0
    4.3977    0.0277   -2.2295 C   0  0  0  0  0  0  0  0  0  0  0  0
    4.8450   -1.3646   -2.6441 C   0  0  0  0  0  0  0  0  0  0  0  0
    3.6531   -2.1413   -3.1792 C   0  0  0  0  0  0  0  0  0  0  0  0
    5.9057   -1.2544   -3.7273 C   0  0  0  0  0  0  0  0  0  0  0  0
    3.0267    2.2411    1.7165 C   0  0  0  0  0  0  0  0  0  0  0  0
    4.5467    2.2411    1.7165 C   0  0  0  0  0  0  0  0  0  0  0  0
    5.2311    1.6356    2.7653 C   0  0  0  0  0  0  0  0  0  0  0  0
    6.6219    1.6325    2.7691 C   0  0  0  0  0  0  0  0  0  0  0  0
    7.3116    2.2356    1.7220 C   0  0  0  0  0  0  0  0  0  0  0  0
    8.6614    2.2352    1.7220 O   0  0  0  0  0  0  0  0  0  0  0  0
    6.6320    2.8428    0.6710 C   0  0  0  0  0  0  0  0  0  0  0  0
    5.2412    2.8426    0.6720 C   0  0  0  0  0  0  0  0  0  0  0  0
   -3.1817   -0.4779    6.1793 C   0  0  0  0  0  0  0  0  0  0  0  0
   -3.5150    1.8165    3.1481 H   0  0  0  0  0  0  0  0  0  0  0  0
   -3.5150    0.1835    3.1481 H   0  0  0  0  0  0  0  0  0  0  0  0
   -1.3283    0.1835    4.0909 H   0  0  0  0  0  0  0  0  0  0  0  0
   -1.3283    1.8165    4.0909 H   0  0  0  0  0  0  0  0  0  0  0  0
   -1.4883    0.1835    1.7151 H   0  0  0  0  0  0  0  0  0  0  0  0
   -1.4883    1.8165    1.7151 H   0  0  0  0  0  0  0  0  0  0  0  0
    0.8150    1.0000    3.0525 H   0  0  0  0  0  0  0  0  0  0  0  0
    2.8533    0.1835    1.4714 H   0  0  0  0  0  0  0  0  0  0  0  0
    2.7684    1.7500   -1.0017 H   0  0  0  0  0  0  0  0  0  0  0  0
    5.1848    0.6445   -2.2297 H   0  0  0  0  0  0  0  0  0  0  0  0
    3.7111    0.3631   -2.8745 H   0  0  0  0  0  0  0  0  0  0  0  0
    5.2257   -1.8420   -1.8521 H   0  0  0  0  0  0  0  0  0  0  0  0
    3.9473   -3.0573   -3.4520 H   0  0  0  0  0  0  0  0  0  0  0  0
    2.9553   -2.2138   -2.4666 H   0  0  0  0  0  0  0  0  0  0  0  0
    3.2724   -1.6638   -3.9711 H   0  0  0  0  0  0  0  0  0  0  0  0
    6.1999   -2.1704   -4.0000 H   0  0  0  0  0  0  0  0  0  0  0  0
    5.5250   -0.7770   -4.5192 H   0  0  0  0  0  0  0  0  0  0  0  0
    6.6898   -0.7434   -3.3752 H   0  0  0  0  0  0  0  0  0  0  0  0
    2.6933    3.0576    1.2451 H   0  0  0  0  0  0  0  0  0  0  0  0
    2.6933    2.2411    2.6593 H   0  0  0  0  0  0  0  0  0  0  0  0
    4.7256    1.2046    3.5128 H   0  0  0  0  0  0  0  0  0  0  0  0
    7.1226    1.1999    3.5190 H   0  0  0  0  0  0  0  0  0  0  0  0
    9.1615    2.6674    0.9716 H   0  0  0  0  0  0  0  0  0  0  0  0
    7.1374    3.2742   -0.0763 H   0  0  0  0  0  0  0  0  0  0  0  0
    4.7405    3.2748   -0.0780 H   0  0  0  0  0  0  0  0  0  0  0  0
   -3.5150   -1.2944    5.7078 H   0  0  0  0  0  0  0  0  0  0  0  0
   -2.1817   -0.4779    6.1793 H   0  0  0  0  0  0  0  0  0  0  0  0
   -3.5150   -0.4779    7.1221 H   0  0  0  0  0  0  0  0  0  0  0  0
  1  2  2  0  0  0  0
  1  3  2  0  0  0  0
  1  4  1  0  0  0  0
  4  5  1  0  0  0  0
  5  6  1  0  0  0  0
  6  7  1  0  0  0  0
  7  8  1  0  0  0  0
  8  9  2  0  0  0  0
  8 10  1  0  0  0  0
 10 11  1  0  0  0  0
 11 12  1  0  0  0  0
 12 13  2  0  0  0  0
 12 14  1  0  0  0  0
 14 15  1  0  0  0  0
 15 16  1  0  0  0  0
 15 17  1  0  0  0  0
 10 18  1  0  0  0  0
 18 19  1  0  0  0  0
 19 20  1  0  0  0  0
 20 21  2  0  0  0  0
 21 22  1  0  0  0  0
 22 23  1  0  0  0  0
 22 24  2  0  0  0  0
 24 25  1  0  0  0  0
 25 19  2  0  0  0  0
  1 26  1  0  0  0  0
  4 27  1  0  0  0  0
  4 28  1  0  0  0  0
  5 29  1  0  0  0  0
  5 30  1  0  0  0  0
  6 31  1  0  0  0  0
  6 32  1  0  0  0  0
  7 33  1  0  0  0  0
 10 34  1  0  0  0  0
 11 35  1  0  0  0  0
 14 36  1  0  0  0  0
 14 37  1  0  0  0  0
 15 38  1  0  0  0  0
 16 39  1  0  0  0  0
 16 40  1  0  0  0  0
 16 41  1  0  0  0  0
 17 42  1  0  0  0  0
 17 43  1  0  0  0  0
 17 44  1  0  0  0  0
 18 45  1  0  0  0  0
 18 46  1  0  0  0  0
 20 47  1  0  0  0  0
 21 48  1  0  0  0  0
 23 49  1  0  0  0  0
 24 50  1  0  0  0  0
 25 51  1  0  0  0  0
 26 52  1  0  0  0  0
 26 53  1  0  0  0  0
 26 54  1  0  0  0  0
M  END
>  <result-rank>
94

>  <similarity>
0.938

>  <query-name>
LIG_A_1101_CCCC[R*]_2

>  <query-smiles>
O=C(NCCCC)[C@@H](NC(=O)C)Cc1ccc(O)cc1

>  <source>
REALspace_2019-12

>  <similarity-descriptor>
1.000;1.000;1.000;1.000;1.000;0.998;0.0;1.000;1.000;1.000;0.949;1.000;1.000;0.294

>  <similarity-descriptor-smiles>
c1ccccc1;C=O;N;C;C;C;;C;N;C=O;C;C;O;S(=O)=O.C.C.C.C

>  <reaction-name>
s_527a

>  <reagent1-name>
1027272

>  <reagent1-smiles>
[R1*]NCCCS(=O)(=O)C

>  <reagent2-name>
17057110

>  <reagent2-smiles>
[R1*]C(=O)C(NC(=O)CC(C)C)Cc1ccc(O)cc1

$$$$
m_272310____14933206____12218986
          04022015093D 1   1.00000     0.00000     0
            
 42 42  0  0  0  0            999 V2000
    5.2105   -1.4690    4.4586 F   0  0  0  0  0  0  0  0  0  0  0  0
    4.8629   -1.5230    3.1759 C   0  0  0  0  0  0  0  0  0  0  0  0
    3.6265   -2.0018    3.0715 F   0  0  0  0  0  0  0  0  0  0  0  0
    4.9181   -0.1271    2.5768 C   0  0  3  0  0  0  0  0  0  0  0  0
    4.5208   -0.1889    1.1110 C   0  0  0  0  0  0  0  0  0  0  0  0
    3.0550   -0.1865    1.0000 N   0  0  0  0  0  0  0  0  0  0  0  0
    2.3700    1.0000    1.0000 C   0  0  0  0  0  0  0  0  0  0  0  0
    2.9700    2.0392    1.0000 O   0  0  0  0  0  0  0  0  0  0  0  0
    1.0000    1.0000    1.0000 N   0  0  0  0  0  0  0  0  0  0  0  0
    0.2650    2.2731    1.0000 C   0  0  3  0  0  0  0  0  0  0  0  0
   -0.6089    2.3536    2.2411 C   0  0  0  0  0  0  0  0  0  0  0  0
   -1.0100    3.4269    2.6300 O   0  5  0  0  0  0  0  0  0  0  0  0
   -0.9132    1.3110    2.8599 O   0  0  0  0  0  0  0  0  0  0  0  0
   -0.6089    2.3536   -0.2411 C   0  0  0  0  0  0  0  0  0  0  0  0
    0.2647    2.2731   -1.4817 C   0  0  0  0  0  0  0  0  0  0  0  0
    0.5409    1.0260   -2.0325 C   0  0  0  0  0  0  0  0  0  0  0  0
    1.3398    0.9545   -3.1684 C   0  0  0  0  0  0  0  0  0  0  0  0
    1.6213   -0.2453   -3.7185 O   0  0  0  0  0  0  0  0  0  0  0  0
    2.4369   -0.3208   -4.8784 C   0  0  0  0  0  0  0  0  0  0  0  0
    1.8549    2.1114   -3.7442 C   0  0  0  0  0  0  0  0  0  0  0  0
    1.5724    3.3531   -3.1832 C   0  0  0  0  0  0  0  0  0  0  0  0
    0.7736    3.4377   -2.0476 C   0  0  0  0  0  0  0  0  0  0  0  0
    6.3311    0.4200    2.6962 C   0  0  0  0  0  0  0  0  0  0  0  0
    5.4949   -2.1220    2.6842 H   0  0  0  0  0  0  0  0  0  0  0  0
    4.2860    0.4718    3.0685 H   0  0  0  0  0  0  0  0  0  0  0  0
    4.8927    0.6057    0.6311 H   0  0  0  0  0  0  0  0  0  0  0  0
    4.8847   -1.0257    0.7019 H   0  0  0  0  0  0  0  0  0  0  0  0
    2.5579   -1.0508    0.9245 H   0  0  0  0  0  0  0  0  0  0  0  0
    0.5000    0.1340    1.0000 H   0  0  0  0  0  0  0  0  0  0  0  0
    0.9148    3.0331    1.0000 H   0  0  0  0  0  0  0  0  0  0  0  0
   -1.2587    1.5935   -0.2411 H   0  0  0  0  0  0  0  0  0  0  0  0
   -1.1089    3.2196   -0.2411 H   0  0  0  0  0  0  0  0  0  0  0  0
    0.1710    0.1944   -1.6184 H   0  0  0  0  0  0  0  0  0  0  0  0
    2.5427   -1.2774   -5.1498 H   0  0  0  0  0  0  0  0  0  0  0  0
    2.0069    0.1911   -5.6221 H   0  0  0  0  0  0  0  0  0  0  0  0
    3.3354    0.0708   -4.6801 H   0  0  0  0  0  0  0  0  0  0  0  0
    2.4282    2.0507   -4.5613 H   0  0  0  0  0  0  0  0  0  0  0  0
    1.9437    4.1846   -3.5965 H   0  0  0  0  0  0  0  0  0  0  0  0
    0.5668    4.3279   -1.6416 H   0  0  0  0  0  0  0  0  0  0  0  0
    6.3674    1.3383    2.3021 H   0  0  0  0  0  0  0  0  0  0  0  0
    6.5925    0.4606    3.6606 H   0  0  0  0  0  0  0  0  0  0  0  0
    6.9632   -0.1790    2.2045 H   0  0  0  0  0  0  0  0  0  0  0  0
  1  2  1  0  0  0  0
  2  3  1  0  0  0  0
  2  4  1  0  0  0  0
  4  5  1  0  0  0  0
  5  6  1  0  0  0  0
  6  7  1  0  0  0  0
  7  8  2  0  0  0  0
  7  9  1  0  0  0  0
  9 10  1  0  0  0  0
 10 11  1  0  0  0  0
 11 12  1  0  0  0  0
 11 13  2  0  0  0  0
 10 14  1  0  0  0  0
 14 15  1  0  0  0  0
 15 16  1  0  0  0  0
 16 17  2  0  0  0  0
 17 18  1  0  0  0  0
 18 19  1  0  0  0  0
 17 20  1  0  0  0  0
 20 21  2  0  0  0  0
 21 22  1  0  0  0  0
 22 15  2  0  0  0  0
  4 23  1  0  0  0  0
  2 24  1  0  0  0  0
  4 25  1  0  0  0  0
  5 26  1  0  0  0  0
  5 27  1  0  0  0  0
  6 28  1  0  0  0  0
  9 29  1  0  0  0  0
 10 30  1  0  0  0  0
 14 31  1  0  0  0  0
 14 32  1  0  0  0  0
 16 33  1  0  0  0  0
 19 34  1  0  0  0  0
 19 35  1  0  0  0  0
 19 36  1  0  0  0  0
 20 37  1  0  0  0  0
 21 38  1  0  0  0  0
 22 39  1  0  0  0  0
 23 40  1  0  0  0  0
 23 41  1  0  0  0  0
 23 42  1  0  0  0  0
M  CHG  1  12  -1
M  END
>  <result-rank>
95

>  <similarity>
0.938

>  <query-name>
LIG_A_1101_CCCC[R*]_2

>  <query-smiles>
O=C(NCCCC)[C@@H](NC(=O)C)Cc1ccc(O)cc1

>  <source>
REALspace_2019-12

>  <similarity-descriptor>
1.000;0.995;1.000;1.000;0.982;0.982;1.000;1.000;1.000;0.733;0.733;1.000;0.704;0.077

>  <similarity-descriptor-smiles>
c1ccccc1;C=O;N;C;FC(F)C;FC(F)C;C;NC;NC;C([O-])=O;C([O-])=O;C;O;C

>  <reaction-name>
m_272310

>  <reagent1-name>
14933206

>  <reagent1-smiles>
[R1*]C(=O)NCC(C(F)F)C

>  <reagent2-name>
12218986

>  <reagent2-smiles>
[R1*]NC(C(=O)O)Cc1cc(OC)ccc1

$$$$
s_527a____7659380____12624300
          04022015093D 1   1.00000     0.00000     0
            
 39 39  0  0  0  0            999 V2000
    8.3418    0.3852    2.2810 Br  0  0  0  0  0  0  0  0  0  0  0  0
    6.8764    0.2368    0.9881 C   0  0  0  0  0  0  0  0  0  0  0  0
    5.5791    0.0220    1.4403 C   0  0  0  0  0  0  0  0  0  0  0  0
    4.5498   -0.0818    0.5098 C   0  0  0  0  0  0  0  0  0  0  0  0
    4.8033    0.0260   -0.8534 C   0  0  0  0  0  0  0  0  0  0  0  0
    6.1084    0.2402   -1.2841 C   0  0  0  0  0  0  0  0  0  0  0  0
    7.1519    0.3471   -0.3707 C   0  0  0  0  0  0  0  0  0  0  0  0
    3.1300   -0.3164    1.0000 C   0  0  3  0  0  0  0  0  0  0  0  0
    2.4556   -1.2716    0.1091 N   0  0  0  0  0  0  0  0  0  0  0  0
    1.9801   -2.4555    0.6082 C   0  0  0  0  0  0  0  0  0  0  0  0
    2.1143   -2.7128    1.7726 O   0  0  0  0  0  0  0  0  0  0  0  0
    1.2827   -3.4432   -0.3129 C   0  0  0  0  0  0  0  0  0  0  0  0
    2.3700    1.0000    1.0000 C   0  0  0  0  0  0  0  0  0  0  0  0
    2.9700    2.0392    1.0000 O   0  0  0  0  0  0  0  0  0  0  0  0
    1.0000    1.0000    1.0000 N   0  0  0  0  0  0  0  0  0  0  0  0
    0.2850    2.2384    1.0000 O   0  0  0  0  0  0  0  0  0  0  0  0
   -0.3482    2.4194   -0.2580 C   0  0  0  0  0  0  0  0  0  0  0  0
   -1.1082    3.7357   -0.2580 C   0  0  0  0  0  0  0  0  0  0  0  0
   -1.7860    3.9295   -1.6047 C   0  0  0  0  0  0  0  0  0  0  0  0
   -2.1593    3.7140    0.8397 C   0  0  0  0  0  0  0  0  0  0  0  0
    5.3889   -0.0566    2.4189 H   0  0  0  0  0  0  0  0  0  0  0  0
    4.0572   -0.0495   -1.5151 H   0  0  0  0  0  0  0  0  0  0  0  0
    6.2989    0.3184   -2.2627 H   0  0  0  0  0  0  0  0  0  0  0  0
    8.0880    0.5012   -0.6868 H   0  0  0  0  0  0  0  0  0  0  0  0
    3.1549   -0.6869    1.9285 H   0  0  0  0  0  0  0  0  0  0  0  0
    2.3438   -1.0571   -0.8612 H   0  0  0  0  0  0  0  0  0  0  0  0
    1.2579   -3.0727   -1.2414 H   0  0  0  0  0  0  0  0  0  0  0  0
    1.7827   -4.3092   -0.3129 H   0  0  0  0  0  0  0  0  0  0  0  0
    0.3488   -3.5975    0.0095 H   0  0  0  0  0  0  0  0  0  0  0  0
    0.5000    0.1340    1.0000 H   0  0  0  0  0  0  0  0  0  0  0  0
   -0.9856    1.6665   -0.4218 H   0  0  0  0  0  0  0  0  0  0  0  0
    0.3433    2.4337   -0.9803 H   0  0  0  0  0  0  0  0  0  0  0  0
   -0.4708    4.4887   -0.0943 H   0  0  0  0  0  0  0  0  0  0  0  0
   -2.2860    4.7955   -1.6047 H   0  0  0  0  0  0  0  0  0  0  0  0
   -1.0945    3.9438   -2.3269 H   0  0  0  0  0  0  0  0  0  0  0  0
   -2.4234    3.1765   -1.7684 H   0  0  0  0  0  0  0  0  0  0  0  0
   -2.6593    4.5800    0.8397 H   0  0  0  0  0  0  0  0  0  0  0  0
   -2.7967    2.9610    0.6760 H   0  0  0  0  0  0  0  0  0  0  0  0
   -1.7134    3.5865    1.7257 H   0  0  0  0  0  0  0  0  0  0  0  0
  1  2  1  0  0  0  0
  2  3  1  0  0  0  0
  3  4  2  0  0  0  0
  4  5  1  0  0  0  0
  5  6  2  0  0  0  0
  6  7  1  0  0  0  0
  7  2  2  0  0  0  0
  4  8  1  0  0  0  0
  8  9  1  0  0  0  0
  9 10  1  0  0  0  0
 10 11  2  0  0  0  0
 10 12  1  0  0  0  0
  8 13  1  0  0  0  0
 13 14  2  0  0  0  0
 13 15  1  0  0  0  0
 15 16  1  0  0  0  0
 16 17  1  0  0  0  0
 17 18  1  0  0  0  0
 18 19  1  0  0  0  0
 18 20  1  0  0  0  0
  3 21  1  0  0  0  0
  5 22  1  0  0  0  0
  6 23  1  0  0  0  0
  7 24  1  0  0  0  0
  8 25  1  0  0  0  0
  9 26  1  0  0  0  0
 12 27  1  0  0  0  0
 12 28  1  0  0  0  0
 12 29  1  0  0  0  0
 15 30  1  0  0  0  0
 17 31  1  0  0  0  0
 17 32  1  0  0  0  0
 18 33  1  0  0  0  0
 19 34  1  0  0  0  0
 19 35  1  0  0  0  0
 19 36  1  0  0  0  0
 20 37  1  0  0  0  0
 20 38  1  0  0  0  0
 20 39  1  0  0  0  0
M  END
>  <result-rank>
96

>  <similarity>
0.938

>  <query-name>
LIG_A_1101_CCCC[R*]_2

>  <query-smiles>
O=C(NCCCC)[C@@H](NC(=O)C)Cc1ccc(O)cc1

>  <source>
REALspace_2019-12

>  <similarity-descriptor>
0.969;1.000;0.660;0.660;0.998;0.998;1.000;1.000;1.000;1.000;1.000;0.969;0.0;0.0

>  <similarity-descriptor-smiles>
Brc1ccccc1;C=O;NOC;NOC;CC;CC;C;C;N;C=O;C;Brc1ccccc1;;

>  <reaction-name>
s_527a

>  <reagent1-name>
7659380

>  <reagent1-smiles>
[R1*]NOCC(C)C

>  <reagent2-name>
12624300

>  <reagent2-smiles>
[R1*]C(=O)C(NC(=O)C)c1cc(Br)ccc1

$$$$
s_2430a____12875778____7689188
          04022015093D 1   1.00000     0.00000     0
            
 50 50  0  0  0  0            999 V2000
    7.4652    2.2441    3.3346 F   0  0  0  0  0  0  0  0  0  0  0  0
    6.2668    2.6746    2.9507 C   0  0  0  0  0  0  0  0  0  0  0  0
    6.2188    2.7263    1.6226 F   0  0  0  0  0  0  0  0  0  0  0  0
    5.1986    1.7204    3.4595 C   0  0  3  0  0  0  0  0  0  0  0  0
    3.8741    2.1962    3.0352 N   0  0  0  0  0  0  0  0  0  0  0  0
    3.0831    1.4052    2.2442 C   0  0  0  0  0  0  0  0  0  0  0  0
    3.4716    0.3240    1.8978 O   0  0  0  0  0  0  0  0  0  0  0  0
    1.8487    1.8487    1.8487 N   0  0  0  0  0  0  0  0  0  0  0  0
    1.0000    1.0000    1.0000 C   0  0  3  0  0  0  0  0  0  0  0  0
    0.7075    1.7208   -0.3059 C   0  0  0  0  0  0  0  0  0  0  0  0
   -0.3868    1.6571   -0.7943 O   0  0  0  0  0  0  0  0  0  0  0  0
    1.6931    2.4433   -0.9252 N   0  0  0  0  0  0  0  0  0  0  0  0
    1.4102    3.1404   -2.1881 C   0  0  0  0  0  0  0  0  0  0  0  0
    0.6894    4.4462   -1.8956 C   0  0  0  0  0  0  0  0  0  0  0  0
    0.4161    5.1196   -3.1155 O   0  0  0  0  0  0  0  0  0  0  0  0
   -0.2573    6.3395   -2.8422 C   0  0  0  0  0  0  0  0  0  0  0  0
   -0.3059    0.7075    1.7208 C   0  0  0  0  0  0  0  0  0  0  0  0
   -0.0133   -0.0135    3.0269 C   0  0  0  0  0  0  0  0  0  0  0  0
    0.1956    0.7227    4.1885 C   0  0  0  0  0  0  0  0  0  0  0  0
    0.4639    0.0591    5.3813 C   0  0  0  0  0  0  0  0  0  0  0  0
    0.5203   -1.3305    5.4067 C   0  0  0  0  0  0  0  0  0  0  0  0
    0.3095   -2.0555    4.2404 C   0  0  0  0  0  0  0  0  0  0  0  0
    0.0410   -1.4036    3.0412 C   0  0  0  0  0  0  0  0  0  0  0  0
    5.2534    1.6613    4.9774 C   0  0  0  0  0  0  0  0  0  0  0  0
    4.1853    0.7070    5.4862 C   0  0  0  0  0  0  0  0  0  0  0  0
    6.1045    3.5873    3.3259 H   0  0  0  0  0  0  0  0  0  0  0  0
    5.3609    0.8077    3.0843 H   0  0  0  0  0  0  0  0  0  0  0  0
    3.5504    3.0973    3.3238 H   0  0  0  0  0  0  0  0  0  0  0  0
    1.5250    2.7498    2.1374 H   0  0  0  0  0  0  0  0  0  0  0  0
    1.4742    0.1409    0.8075 H   0  0  0  0  0  0  0  0  0  0  0  0
    2.6049    2.4964   -0.5181 H   0  0  0  0  0  0  0  0  0  0  0  0
    0.8328    2.5630   -2.7654 H   0  0  0  0  0  0  0  0  0  0  0  0
    2.2693    3.3328   -2.6623 H   0  0  0  0  0  0  0  0  0  0  0  0
   -0.1698    4.2538   -1.4214 H   0  0  0  0  0  0  0  0  0  0  0  0
    1.2667    5.0236   -1.3182 H   0  0  0  0  0  0  0  0  0  0  0  0
   -0.4498    6.8138   -3.7014 H   0  0  0  0  0  0  0  0  0  0  0  0
   -1.1164    6.1471   -2.3680 H   0  0  0  0  0  0  0  0  0  0  0  0
    0.3200    6.9169   -2.2649 H   0  0  0  0  0  0  0  0  0  0  0  0
   -0.7801    1.5666    1.9133 H   0  0  0  0  0  0  0  0  0  0  0  0
   -0.8832    0.1301    1.1435 H   0  0  0  0  0  0  0  0  0  0  0  0
    0.1533    1.7216    4.1663 H   0  0  0  0  0  0  0  0  0  0  0  0
    0.6162    0.5811    6.2206 H   0  0  0  0  0  0  0  0  0  0  0  0
    0.7125   -1.8076    6.2643 H   0  0  0  0  0  0  0  0  0  0  0  0
    0.3511   -3.0544    4.2632 H   0  0  0  0  0  0  0  0  0  0  0  0
   -0.1106   -1.9262    2.2022 H   0  0  0  0  0  0  0  0  0  0  0  0
    5.0912    2.5739    5.3526 H   0  0  0  0  0  0  0  0  0  0  0  0
    6.1545    1.3376    5.2661 H   0  0  0  0  0  0  0  0  0  0  0  0
    4.2214    0.6682    6.4848 H   0  0  0  0  0  0  0  0  0  0  0  0
    3.2843    1.0307    5.1975 H   0  0  0  0  0  0  0  0  0  0  0  0
    4.3476   -0.2056    5.1110 H   0  0  0  0  0  0  0  0  0  0  0  0
  1  2  1  0  0  0  0
  2  3  1  0  0  0  0
  2  4  1  0  0  0  0
  4  5  1  0  0  0  0
  5  6  1  0  0  0  0
  6  7  2  0  0  0  0
  6  8  1  0  0  0  0
  8  9  1  0  0  0  0
  9 10  1  0  0  0  0
 10 11  2  0  0  0  0
 10 12  1  0  0  0  0
 12 13  1  0  0  0  0
 13 14  1  0  0  0  0
 14 15  1  0  0  0  0
 15 16  1  0  0  0  0
  9 17  1  0  0  0  0
 17 18  1  0  0  0  0
 18 19  1  0  0  0  0
 19 20  2  0  0  0  0
 20 21  1  0  0  0  0
 21 22  2  0  0  0  0
 22 23  1  0  0  0  0
 23 18  2  0  0  0  0
  4 24  1  0  0  0  0
 24 25  1  0  0  0  0
  2 26  1  0  0  0  0
  4 27  1  0  0  0  0
  5 28  1  0  0  0  0
  8 29  1  0  0  0  0
  9 30  1  0  0  0  0
 12 31  1  0  0  0  0
 13 32  1  0  0  0  0
 13 33  1  0  0  0  0
 14 34  1  0  0  0  0
 14 35  1  0  0  0  0
 16 36  1  0  0  0  0
 16 37  1  0  0  0  0
 16 38  1  0  0  0  0
 17 39  1  0  0  0  0
 17 40  1  0  0  0  0
 19 41  1  0  0  0  0
 20 42  1  0  0  0  0
 21 43  1  0  0  0  0
 22 44  1  0  0  0  0
 23 45  1  0  0  0  0
 24 46  1  0  0  0  0
 24 47  1  0  0  0  0
 25 48  1  0  0  0  0
 25 49  1  0  0  0  0
 25 50  1  0  0  0  0
M  END
>  <result-rank>
97

>  <similarity>
0.938

>  <query-name>
LIG_A_1101_CCCC[R*]_2

>  <query-smiles>
O=C(NCCCC)[C@@H](NC(=O)C)Cc1ccc(O)cc1

>  <source>
REALspace_2019-12

>  <similarity-descriptor>
0.960;0.995;1.000;0.982;0.982;1.000;1.000;1.000;1.000;0.852;0.956;1.000;0.0;0.188

>  <similarity-descriptor-smiles>
c1ccccc1;C=O;N;FC(F)C;FC(F)C;C;C;NC;NC;C(=O)N;C;C;;C.O.C

>  <reaction-name>
s_2430a

>  <reagent1-name>
12875778

>  <reagent1-smiles>
[R1*]C(=O)NC(C(F)F)CC

>  <reagent2-name>
7689188

>  <reagent2-smiles>
[R1*]NC(C(=O)NCCOC)Cc1ccccc1

$$$$
s_11a____8685750____5637260
          04022015093D 1   1.00000     0.00000     0
            
 39 39  0  0  0  0            999 V2000
   -2.9968   -0.0894    1.5493 F   0  0  0  0  0  0  0  0  0  0  0  0
   -2.8808    0.5179    0.3718 C   0  0  0  0  0  0  0  0  0  0  0  0
   -2.0095    1.5940    0.2379 C   0  0  0  0  0  0  0  0  0  0  0  0
   -1.8718    2.2441   -0.9839 C   0  0  0  0  0  0  0  0  0  0  0  0
   -2.6165    1.8055   -2.0746 C   0  0  0  0  0  0  0  0  0  0  0  0
   -3.4861    0.7291   -1.9349 C   0  0  0  0  0  0  0  0  0  0  0  0
   -4.1968    0.3116   -2.9777 F   0  0  0  0  0  0  0  0  0  0  0  0
   -3.6276    0.0763   -0.7153 C   0  0  0  0  0  0  0  0  0  0  0  0
   -1.1970    2.0718    1.4309 C   0  0  3  0  0  0  0  0  0  0  0  0
   -1.7732    3.3217    1.9473 N   0  0  0  0  0  0  0  0  0  0  0  0
   -2.2300    3.3837    3.2374 C   0  0  0  0  0  0  0  0  0  0  0  0
   -2.1597    2.4177    3.9459 O   0  0  0  0  0  0  0  0  0  0  0  0
   -2.8258    4.6761    3.7714 C   0  0  0  0  0  0  0  0  0  0  0  0
    0.2400    2.3164    1.0000 C   0  0  0  0  0  0  0  0  0  0  0  0
    1.0000    1.0000    1.0000 C   0  0  0  0  0  0  0  0  0  0  0  0
    0.4000   -0.0392    1.0000 O   0  0  0  0  0  0  0  0  0  0  0  0
    2.3700    1.0000    1.0000 N   0  0  0  0  0  0  0  0  0  0  0  0
    3.1050   -0.2731    1.0000 C   0  0  0  0  0  0  0  0  0  0  0  0
    3.1428   -0.8363   -0.4113 C   0  0  0  0  0  0  0  0  0  0  0  0
    3.9028   -2.1526   -0.4113 C   0  0  0  0  0  0  0  0  0  0  0  0
    3.9406   -2.7158   -1.8226 C   0  0  0  0  0  0  0  0  0  0  0  0
    3.9690   -3.1382   -2.8811 N   0  0  0  0  0  0  0  0  0  0  0  0
   -1.2449    3.0176   -1.0776 H   0  0  0  0  0  0  0  0  0  0  0  0
   -2.5264    2.2641   -2.9586 H   0  0  0  0  0  0  0  0  0  0  0  0
   -4.2549   -0.6967   -0.6216 H   0  0  0  0  0  0  0  0  0  0  0  0
   -1.2160    1.3748    2.1478 H   0  0  0  0  0  0  0  0  0  0  0  0
   -1.8317    4.1267    1.3569 H   0  0  0  0  0  0  0  0  0  0  0  0
   -2.8068    5.3731    3.0545 H   0  0  0  0  0  0  0  0  0  0  0  0
   -3.7711    4.5152    4.0549 H   0  0  0  0  0  0  0  0  0  0  0  0
   -2.2913    4.9903    4.5560 H   0  0  0  0  0  0  0  0  0  0  0  0
    0.2501    2.7071    0.0795 H   0  0  0  0  0  0  0  0  0  0  0  0
    0.6753    2.9526    1.6370 H   0  0  0  0  0  0  0  0  0  0  0  0
    2.8700    1.8660    1.0000 H   0  0  0  0  0  0  0  0  0  0  0  0
    2.6462   -0.9228    1.6060 H   0  0  0  0  0  0  0  0  0  0  0  0
    4.0389   -0.1188    1.3225 H   0  0  0  0  0  0  0  0  0  0  0  0
    3.6016   -0.1865   -1.0173 H   0  0  0  0  0  0  0  0  0  0  0  0
    2.2089   -0.9906   -0.7338 H   0  0  0  0  0  0  0  0  0  0  0  0
    4.8367   -1.9983   -0.0888 H   0  0  0  0  0  0  0  0  0  0  0  0
    3.4440   -2.8024    0.1947 H   0  0  0  0  0  0  0  0  0  0  0  0
  1  2  1  0  0  0  0
  2  3  1  0  0  0  0
  3  4  2  0  0  0  0
  4  5  1  0  0  0  0
  5  6  2  0  0  0  0
  6  7  1  0  0  0  0
  6  8  1  0  0  0  0
  8  2  2  0  0  0  0
  3  9  1  0  0  0  0
  9 10  1  0  0  0  0
 10 11  1  0  0  0  0
 11 12  2  0  0  0  0
 11 13  1  0  0  0  0
  9 14  1  0  0  0  0
 14 15  1  0  0  0  0
 15 16  2  0  0  0  0
 15 17  1  0  0  0  0
 17 18  1  0  0  0  0
 18 19  1  0  0  0  0
 19 20  1  0  0  0  0
 20 21  1  0  0  0  0
 21 22  3  0  0  0  0
  4 23  1  0  0  0  0
  5 24  1  0  0  0  0
  8 25  1  0  0  0  0
  9 26  1  0  0  0  0
 10 27  1  0  0  0  0
 13 28  1  0  0  0  0
 13 29  1  0  0  0  0
 13 30  1  0  0  0  0
 14 31  1  0  0  0  0
 14 32  1  0  0  0  0
 17 33  1  0  0  0  0
 18 34  1  0  0  0  0
 18 35  1  0  0  0  0
 19 36  1  0  0  0  0
 19 37  1  0  0  0  0
 20 38  1  0  0  0  0
 20 39  1  0  0  0  0
M  END
>  <result-rank>
98

>  <similarity>
0.937

>  <query-name>
LIG_A_1101_CCCC[R*]_2

>  <query-smiles>
O=C(NCCCC)[C@@H](NC(=O)C)Cc1ccc(O)cc1

>  <source>
REALspace_2019-12

>  <similarity-descriptor>
0.948;1.000;0.844;0.844;0.844;1.000;0.948;1.000;1.000;1.000;1.000;1.000;0.0;0.083

>  <similarity-descriptor-smiles>
Fc1cc(ccc1)F;C=O;NC;NC;NC;C;C;CC;N;C=O;C;CC;;C#N

>  <reaction-name>
s_11a

>  <reagent1-name>
8685750

>  <reagent1-smiles>
[R1*]NCCCC#N

>  <reagent2-name>
5637260

>  <reagent2-smiles>
[R1*]C(=O)CC(NC(=O)C)c1c(F)cc(F)cc1

$$$$
s_527a____14048834____17057110
          04022015093D 1   1.00000     0.00000     0
            
 56 58  0  0  0  0            999 V2000
    3.1767    1.0994   -1.2506 O   0  0  0  0  0  0  0  0  0  0  0  0
    2.9767    1.7165   -0.2411 C   0  0  0  0  0  0  0  0  0  0  0  0
    3.2050    3.0669   -0.2071 N   0  0  0  0  0  0  0  0  0  0  0  0
    3.6947    3.7594   -1.4066 C   0  0  3  0  0  0  0  0  0  0  0  0
    2.5810    4.2627   -2.2783 C   0  0  3  0  0  0  0  0  0  0  0  0
    3.3248    5.2134   -1.3921 C   0  0  3  0  0  0  0  0  0  0  0  0
    3.9564    6.2554   -2.2939 C   0  0  0  0  0  0  0  0  0  0  0  0
    4.0869    5.5482   -3.6230 C   0  0  0  0  0  0  0  0  0  0  0  0
    2.7745    4.7946   -3.6856 C   0  0  0  0  0  0  0  0  0  0  0  0
    2.9600    3.8230    1.0295 C   0  0  0  0  0  0  0  0  0  0  0  0
    2.4700    1.0000    1.0000 C   0  0  3  0  0  0  0  0  0  0  0  0
    1.0000    1.0000    1.0000 N   0  0  0  0  0  0  0  0  0  0  0  0
    0.3150    1.0000    2.1865 C   0  0  0  0  0  0  0  0  0  0  0  0
    0.9150    1.0000    3.2257 O   0  0  0  0  0  0  0  0  0  0  0  0
   -1.2050    1.0000    2.1865 C   0  0  0  0  0  0  0  0  0  0  0  0
   -1.7117   -0.4331    2.1865 C   0  0  0  0  0  0  0  0  0  0  0  0
   -3.2317   -0.4331    2.1865 C   0  0  0  0  0  0  0  0  0  0  0  0
   -1.2050   -1.1496    0.9454 C   0  0  0  0  0  0  0  0  0  0  0  0
    2.9767   -0.4331    1.0000 C   0  0  0  0  0  0  0  0  0  0  0  0
    4.4967   -0.4331    1.0000 C   0  0  0  0  0  0  0  0  0  0  0  0
    5.1811   -0.4331    2.2110 C   0  0  0  0  0  0  0  0  0  0  0  0
    6.5719   -0.4338    2.2159 C   0  0  0  0  0  0  0  0  0  0  0  0
    7.2616   -0.4351    1.0075 C   0  0  0  0  0  0  0  0  0  0  0  0
    8.6816   -0.4355    1.0077 O   0  0  0  0  0  0  0  0  0  0  0  0
    6.5820   -0.4347   -0.2063 C   0  0  0  0  0  0  0  0  0  0  0  0
    5.1912   -0.4344   -0.2053 C   0  0  0  0  0  0  0  0  0  0  0  0
    4.5574    3.4738   -1.8237 H   0  0  0  0  0  0  0  0  0  0  0  0
    1.6486    4.0240   -2.0071 H   0  0  0  0  0  0  0  0  0  0  0  0
    2.8420    5.5488   -0.5831 H   0  0  0  0  0  0  0  0  0  0  0  0
    4.8530    6.5308   -1.9470 H   0  0  0  0  0  0  0  0  0  0  0  0
    3.3686    7.0604   -2.3746 H   0  0  0  0  0  0  0  0  0  0  0  0
    4.1722    6.1989   -4.3775 H   0  0  0  0  0  0  0  0  0  0  0  0
    4.8684    4.9243   -3.6309 H   0  0  0  0  0  0  0  0  0  0  0  0
    2.0258    5.4073   -3.9389 H   0  0  0  0  0  0  0  0  0  0  0  0
    2.8280    4.0438   -4.3440 H   0  0  0  0  0  0  0  0  0  0  0  0
    3.1766    4.7875    0.8790 H   0  0  0  0  0  0  0  0  0  0  0  0
    1.9986    3.7339    1.2897 H   0  0  0  0  0  0  0  0  0  0  0  0
    3.5382    3.4617    1.7611 H   0  0  0  0  0  0  0  0  0  0  0  0
    2.8033    1.4714    1.8165 H   0  0  0  0  0  0  0  0  0  0  0  0
    0.5000    1.0000    0.1340 H   0  0  0  0  0  0  0  0  0  0  0  0
   -1.5383    1.4714    1.3700 H   0  0  0  0  0  0  0  0  0  0  0  0
   -1.5383    1.4714    3.0030 H   0  0  0  0  0  0  0  0  0  0  0  0
   -1.3783   -0.9045    3.0030 H   0  0  0  0  0  0  0  0  0  0  0  0
   -3.5650   -1.3759    2.1865 H   0  0  0  0  0  0  0  0  0  0  0  0
   -3.5650    0.0383    3.0030 H   0  0  0  0  0  0  0  0  0  0  0  0
   -3.5650    0.0383    1.3700 H   0  0  0  0  0  0  0  0  0  0  0  0
   -1.5383   -2.0924    0.9454 H   0  0  0  0  0  0  0  0  0  0  0  0
   -1.5383   -0.6782    0.1289 H   0  0  0  0  0  0  0  0  0  0  0  0
   -0.2050   -1.1496    0.9454 H   0  0  0  0  0  0  0  0  0  0  0  0
    2.6433   -0.9045    1.8165 H   0  0  0  0  0  0  0  0  0  0  0  0
    2.6433   -0.9045    0.1835 H   0  0  0  0  0  0  0  0  0  0  0  0
    4.6756   -0.4325    3.0738 H   0  0  0  0  0  0  0  0  0  0  0  0
    7.0726   -0.4335    3.0815 H   0  0  0  0  0  0  0  0  0  0  0  0
    9.1817   -0.4364    0.1417 H   0  0  0  0  0  0  0  0  0  0  0  0
    7.0874   -0.4347   -1.0692 H   0  0  0  0  0  0  0  0  0  0  0  0
    4.6905   -0.4351   -1.0710 H   0  0  0  0  0  0  0  0  0  0  0  0
  1  2  2  0  0  0  0
  2  3  1  0  0  0  0
  3  4  1  0  0  0  0
  4  5  1  0  0  0  0
  5  6  1  0  0  0  0
  6  4  1  0  0  0  0
  6  7  1  0  0  0  0
  7  8  1  0  0  0  0
  8  9  1  0  0  0  0
  9  5  1  0  0  0  0
  3 10  1  0  0  0  0
  2 11  1  0  0  0  0
 11 12  1  0  0  0  0
 12 13  1  0  0  0  0
 13 14  2  0  0  0  0
 13 15  1  0  0  0  0
 15 16  1  0  0  0  0
 16 17  1  0  0  0  0
 16 18  1  0  0  0  0
 11 19  1  0  0  0  0
 19 20  1  0  0  0  0
 20 21  1  0  0  0  0
 21 22  2  0  0  0  0
 22 23  1  0  0  0  0
 23 24  1  0  0  0  0
 23 25  2  0  0  0  0
 25 26  1  0  0  0  0
 26 20  2  0  0  0  0
  4 27  1  0  0  0  0
  5 28  1  0  0  0  0
  6 29  1  0  0  0  0
  7 30  1  0  0  0  0
  7 31  1  0  0  0  0
  8 32  1  0  0  0  0
  8 33  1  0  0  0  0
  9 34  1  0  0  0  0
  9 35  1  0  0  0  0
 10 36  1  0  0  0  0
 10 37  1  0  0  0  0
 10 38  1  0  0  0  0
 11 39  1  0  0  0  0
 12 40  1  0  0  0  0
 15 41  1  0  0  0  0
 15 42  1  0  0  0  0
 16 43  1  0  0  0  0
 17 44  1  0  0  0  0
 17 45  1  0  0  0  0
 17 46  1  0  0  0  0
 18 47  1  0  0  0  0
 18 48  1  0  0  0  0
 18 49  1  0  0  0  0
 19 50  1  0  0  0  0
 19 51  1  0  0  0  0
 21 52  1  0  0  0  0
 22 53  1  0  0  0  0
 24 54  1  0  0  0  0
 25 55  1  0  0  0  0
 26 56  1  0  0  0  0
M  END
>  <result-rank>
99

>  <similarity>
0.937

>  <query-name>
LIG_A_1101_CCCC[R*]_2

>  <query-smiles>
O=C(NCCCC)[C@@H](NC(=O)C)Cc1ccc(O)cc1

>  <source>
REALspace_2019-12

>  <similarity-descriptor>
1.000;0.852;0.852;0.993;0.998;0.998;1.000;1.000;1.000;1.000;0.977;1.000;1.000;0.133

>  <similarity-descriptor-smiles>
c1ccccc1;C=O;C=O;C;CC;CC;C;CN;CN;O=C;NC;C;O;C1CC1.C1CCCC1

>  <reaction-name>
s_527a

>  <reagent1-name>
14048834

>  <reagent1-smiles>
[R1*]N(C1C2C1CCC2)C

>  <reagent2-name>
17057110

>  <reagent2-smiles>
[R1*]C(=O)C(NC(=O)CC(C)C)Cc1ccc(O)cc1

$$$$
s_2708____9434212____10739996
          04022015093D 1   1.00000     0.00000     0
            
 47 47  0  0  0  0            999 V2000
    6.6000   -0.6007    5.9456 Cl  0  0  0  0  0  0  0  0  0  0  0  0
    5.5733   -0.5035    4.4950 C   0  0  0  0  0  0  0  0  0  0  0  0
    4.2298   -0.1678    4.6198 C   0  0  0  0  0  0  0  0  0  0  0  0
    3.4235   -0.0914    3.4886 C   0  0  0  0  0  0  0  0  0  0  0  0
    3.9785   -0.3535    2.2406 C   0  0  0  0  0  0  0  0  0  0  0  0
    5.3219   -0.6895    2.1153 C   0  0  0  0  0  0  0  0  0  0  0  0
    6.1283   -0.7660    3.2467 C   0  0  0  0  0  0  0  0  0  0  0  0
    3.1050   -0.2731    1.0000 C   0  0  3  0  0  0  0  0  0  0  0  0
    2.3700    1.0000    1.0000 N   0  0  0  0  0  0  0  0  0  0  0  0
    1.0000    1.0000    1.0000 C   0  0  0  0  0  0  0  0  0  0  0  0
    0.4000   -0.0392    1.0000 O   0  0  0  0  0  0  0  0  0  0  0  0
    0.3150    2.1865    1.0000 N   0  0  0  0  0  0  0  0  0  0  0  0
   -1.1550    2.1865    1.0000 C   0  0  0  0  0  0  0  0  0  0  0  0
   -1.6617    1.9376    2.4113 C   0  0  3  0  0  0  0  0  0  0  0  0
   -1.1883    0.6796    2.8692 O   0  0  0  0  0  0  0  0  0  0  0  0
   -1.6617    0.4471    4.1876 C   0  0  0  0  0  0  0  0  0  0  0  0
   -3.1817    1.9376    2.4113 C   0  0  0  0  0  0  0  0  0  0  0  0
   -3.6883    3.2842    1.9212 C   0  0  0  0  0  0  0  0  0  0  0  0
   -1.1550    3.0354    3.3325 C   0  0  0  0  0  0  0  0  0  0  0  0
    3.9789   -0.3536   -0.2411 C   0  0  0  0  0  0  0  0  0  0  0  0
    3.1625   -0.2784   -1.4005 O   0  0  0  0  0  0  0  0  0  0  0  0
    2.7675   -1.5864   -1.7870 C   0  0  0  0  0  0  0  0  0  0  0  0
    3.8429    0.0188    5.5229 H   0  0  0  0  0  0  0  0  0  0  0  0
    2.4564    0.1491    3.5719 H   0  0  0  0  0  0  0  0  0  0  0  0
    5.7085   -0.8762    1.2122 H   0  0  0  0  0  0  0  0  0  0  0  0
    7.0954   -1.0067    3.1635 H   0  0  0  0  0  0  0  0  0  0  0  0
    2.4552   -1.0331    1.0000 H   0  0  0  0  0  0  0  0  0  0  0  0
    2.8700    1.8660    1.0000 H   0  0  0  0  0  0  0  0  0  0  0  0
    0.8150    3.0525    1.0000 H   0  0  0  0  0  0  0  0  0  0  0  0
   -1.4883    1.4642    0.3940 H   0  0  0  0  0  0  0  0  0  0  0  0
   -1.4883    3.0724    0.6775 H   0  0  0  0  0  0  0  0  0  0  0  0
   -1.3283   -0.4389    4.5101 H   0  0  0  0  0  0  0  0  0  0  0  0
   -1.3283    1.1693    4.7937 H   0  0  0  0  0  0  0  0  0  0  0  0
   -2.6617    0.4471    4.1876 H   0  0  0  0  0  0  0  0  0  0  0  0
   -3.5150    1.7739    3.3398 H   0  0  0  0  0  0  0  0  0  0  0  0
   -3.5150    1.2154    1.8053 H   0  0  0  0  0  0  0  0  0  0  0  0
   -4.6883    3.2842    1.9212 H   0  0  0  0  0  0  0  0  0  0  0  0
   -3.3550    4.0065    2.5272 H   0  0  0  0  0  0  0  0  0  0  0  0
   -3.3550    3.4480    0.9927 H   0  0  0  0  0  0  0  0  0  0  0  0
   -1.4883    3.9214    3.0100 H   0  0  0  0  0  0  0  0  0  0  0  0
   -1.4883    2.8717    4.2609 H   0  0  0  0  0  0  0  0  0  0  0  0
   -0.1550    3.0354    3.3325 H   0  0  0  0  0  0  0  0  0  0  0  0
    4.6287    0.4065   -0.2411 H   0  0  0  0  0  0  0  0  0  0  0  0
    4.4789   -1.2196   -0.2411 H   0  0  0  0  0  0  0  0  0  0  0  0
    2.1926   -1.5334   -2.6035 H   0  0  0  0  0  0  0  0  0  0  0  0
    3.5798   -2.1347   -1.9862 H   0  0  0  0  0  0  0  0  0  0  0  0
    2.2521   -2.0123   -1.0434 H   0  0  0  0  0  0  0  0  0  0  0  0
  1  2  1  0  0  0  0
  2  3  1  0  0  0  0
  3  4  2  0  0  0  0
  4  5  1  0  0  0  0
  5  6  2  0  0  0  0
  6  7  1  0  0  0  0
  7  2  2  0  0  0  0
  5  8  1  0  0  0  0
  8  9  1  0  0  0  0
  9 10  1  0  0  0  0
 10 11  2  0  0  0  0
 10 12  1  0  0  0  0
 12 13  1  0  0  0  0
 13 14  1  0  0  0  0
 14 15  1  0  0  0  0
 15 16  1  0  0  0  0
 14 17  1  0  0  0  0
 17 18  1  0  0  0  0
 14 19  1  0  0  0  0
  8 20  1  0  0  0  0
 20 21  1  0  0  0  0
 21 22  1  0  0  0  0
  3 23  1  0  0  0  0
  4 24  1  0  0  0  0
  6 25  1  0  0  0  0
  7 26  1  0  0  0  0
  8 27  1  0  0  0  0
  9 28  1  0  0  0  0
 12 29  1  0  0  0  0
 13 30  1  0  0  0  0
 13 31  1  0  0  0  0
 16 32  1  0  0  0  0
 16 33  1  0  0  0  0
 16 34  1  0  0  0  0
 17 35  1  0  0  0  0
 17 36  1  0  0  0  0
 18 37  1  0  0  0  0
 18 38  1  0  0  0  0
 18 39  1  0  0  0  0
 19 40  1  0  0  0  0
 19 41  1  0  0  0  0
 19 42  1  0  0  0  0
 20 43  1  0  0  0  0
 20 44  1  0  0  0  0
 22 45  1  0  0  0  0
 22 46  1  0  0  0  0
 22 47  1  0  0  0  0
M  END
>  <result-rank>
100

>  <similarity>
0.937

>  <query-name>
LIG_A_1101_CCCC[R*]_2

>  <query-smiles>
O=C(NCCCC)[C@@H](NC(=O)C)Cc1ccc(O)cc1

>  <source>
REALspace_2019-12

>  <similarity-descriptor>
0.969;0.995;1.000;1.000;0.955;0.955;1.000;1.000;1.000;0.770;0.994;0.969;0.0;0.133

>  <similarity-descriptor-smiles>
Clc1ccccc1;C=O;N;C;CCC;CCC;C;CN;CN;CO;C;Clc1ccccc1;;O.C

>  <reaction-name>
s_2708

>  <reagent1-name>
9434212

>  <reagent1-smiles>
[R1*]C(=O)NC(c1ccc(Cl)cc1)COC

>  <reagent2-name>
10739996

>  <reagent2-smiles>
[R1*]NCC(OC)(CC)C

$$$$
