LIG_A_1101_CCC[C@H]([R*])C1CCC1_2
anSeeSAR  04022010373D 1   1.00000     0.00000     0
SeeSAR 9.2 andre
 52 53  0  0  0  0            999 V2000
    7.1731    5.7045   21.6671 C   0  0  0  0  0  0  0  0  0  0  0  0
    7.2530    0.1696   20.3513 C   0  0  0  0  0  0  0  0  0  0  0  0
    9.2624    1.5395   22.4185 C   0  0  0  0  0  0  0  0  0  0  0  0
    6.9688    4.3849   22.3402 C   0  0  0  0  0  0  0  0  0  0  0  0
    7.9481    2.1969   22.8181 C   0  0  2  0  0  0  0  0  0  0  0  0
    6.7549    1.2609   22.5640 C   0  0  0  0  0  0  0  0  0  0  0  0
    6.4788    1.0445   21.0964 C   0  0  0  0  0  0  0  0  0  0  0  0
    5.4706    1.7387   20.4437 C   0  0  0  0  0  0  0  0  0  0  0  0
    5.2344    1.5634   19.0907 C   0  0  0  0  0  0  0  0  0  0  0  0
    6.0214    0.6818   18.3707 C   0  0  0  0  0  0  0  0  0  0  0  0
    7.0338   -0.0124   18.9990 C   0  0  0  0  0  0  0  0  0  0  0  0
    7.8557    3.4353   22.0579 N   0  0  0  0  0  0  0  0  0  0  0  0
    9.8283    0.7539   23.3277 N   0  0  0  0  0  0  0  0  0  0  0  0
    6.0200    4.1663   23.0852 O   0  0  0  0  0  0  0  0  0  0  0  0
    5.8379    0.5031   17.0417 O   0  0  0  0  0  0  0  0  0  0  0  0
    9.7347    1.7140   21.2963 O   0  0  0  0  0  0  0  0  0  0  0  0
    6.4532    6.3382   21.9504 H   0  0  0  0  0  0  0  0  0  0  0  0
    8.0648    6.0760   21.9255 H   0  0  0  0  0  0  0  0  0  0  0  0
    7.1378    5.5818   20.6753 H   0  0  0  0  0  0  0  0  0  0  0  0
    7.9857   -0.3408   20.8015 H   0  0  0  0  0  0  0  0  0  0  0  0
    7.9819    2.4188   23.7926 H   0  0  0  0  0  0  0  0  0  0  0  0
    5.9409    1.6601   22.9861 H   0  0  0  0  0  0  0  0  0  0  0  0
    6.9489    0.3753   22.9860 H   0  0  0  0  0  0  0  0  0  0  0  0
    4.9027    2.3788   20.9611 H   0  0  0  0  0  0  0  0  0  0  0  0
    4.5009    2.0699   18.6374 H   0  0  0  0  0  0  0  0  0  0  0  0
    7.6071   -0.6450   18.4782 H   0  0  0  0  0  0  0  0  0  0  0  0
    8.4842    3.5773   21.2931 H   0  0  0  0  0  0  0  0  0  0  0  0
    9.5085    0.7863   24.2746 H   0  0  0  0  0  0  0  0  0  0  0  0
    6.6251    0.4929   16.4251 H   0  0  0  0  0  0  0  0  0  0  0  0
   14.1603   -1.0927   24.7558 C   0  0  0  0  0  0  0  0  0  0  0  0
   13.1543   -1.0160   23.6189 C   0  0  0  0  0  0  0  0  0  0  0  0
   12.0132   -0.0926   24.0137 C   0  0  0  0  0  0  0  0  0  0  0  0
   10.9179   -0.1626   22.9620 C   0  0  1  0  0  0  0  0  0  0  0  0
   10.3797   -1.5857   22.8833 C   0  0  0  0  0  0  0  0  0  0  0  0
    9.4436   -1.7898   21.7173 C   0  0  0  0  0  0  0  0  0  0  0  0
    8.6126   -2.6692   22.6185 C   0  0  0  0  0  0  0  0  0  0  0  0
    9.1373   -1.7948   23.7305 C   0  0  0  0  0  0  0  0  0  0  0  0
   11.2918    0.1021   22.0731 H   0  0  0  0  0  0  0  0  0  0  0  0
   14.9110   -1.7001   24.4961 H   0  0  0  0  0  0  0  0  0  0  0  0
   14.5206   -0.1791   24.9442 H   0  0  0  0  0  0  0  0  0  0  0  0
   13.7110   -1.4493   25.5749 H   0  0  0  0  0  0  0  0  0  0  0  0
   12.7939   -1.9295   23.4305 H   0  0  0  0  0  0  0  0  0  0  0  0
   13.6036   -0.6594   22.7998 H   0  0  0  0  0  0  0  0  0  0  0  0
   12.3518    0.8460   24.0804 H   0  0  0  0  0  0  0  0  0  0  0  0
   11.6445   -0.3777   24.8984 H   0  0  0  0  0  0  0  0  0  0  0  0
   11.0748   -2.2972   22.9854 H   0  0  0  0  0  0  0  0  0  0  0  0
    9.8498   -2.2614   20.9346 H   0  0  0  0  0  0  0  0  0  0  0  0
    8.9817   -0.9602   21.4036 H   0  0  0  0  0  0  0  0  0  0  0  0
    8.8969   -3.6270   22.6594 H   0  0  0  0  0  0  0  0  0  0  0  0
    7.6251   -2.6207   22.4684 H   0  0  0  0  0  0  0  0  0  0  0  0
    8.6023   -0.9670   23.8988 H   0  0  0  0  0  0  0  0  0  0  0  0
    9.2970   -2.2702   24.5957 H   0  0  0  0  0  0  0  0  0  0  0  0
  1  4  1  0  0  0  0
  2  7  2  0  0  0  0
  2 11  1  0  0  0  0
  3  5  1  0  0  0  0
  3 13  1  0  0  0  0
  3 16  2  0  0  0  0
 15 29  1  0  0  0  0
  4 12  1  0  0  0  0
  4 14  2  0  0  0  0
  5  6  1  0  0  0  0
  5 12  1  0  0  0  0
  6  7  1  0  0  0  0
  7  8  1  0  0  0  0
  8  9  2  0  0  0  0
  9 10  1  0  0  0  0
 10 11  2  0  0  0  0
 10 15  1  0  0  0  0
  1 17  1  0  0  0  0
  1 18  1  0  0  0  0
  1 19  1  0  0  0  0
  2 20  1  0  0  0  0
  5 21  1  0  0  0  0
  6 22  1  0  0  0  0
  6 23  1  0  0  0  0
  8 24  1  0  0  0  0
  9 25  1  0  0  0  0
 11 26  1  0  0  0  0
 12 27  1  0  0  0  0
 13 28  1  0  0  0  0
 30 31  1  0  0  0  0
 31 32  1  0  0  0  0
 32 33  1  0  0  0  0
 37 52  1  0  0  0  0
 33 34  1  0  0  0  0
 34 35  1  0  0  0  0
 35 36  1  0  0  0  0
 36 37  1  0  0  0  0
 37 34  1  0  0  0  0
 33 38  1  0  0  0  0
 30 39  1  0  0  0  0
 30 40  1  0  0  0  0
 30 41  1  0  0  0  0
 31 42  1  0  0  0  0
 31 43  1  0  0  0  0
 32 44  1  0  0  0  0
 32 45  1  0  0  0  0
 34 46  1  0  0  0  0
 35 47  1  0  0  0  0
 35 48  1  0  0  0  0
 36 49  1  0  0  0  0
 36 50  1  0  0  0  0
 37 51  1  0  0  0  0
 13 33  1  0  0  0  0
M  END
> <BIOSOLVEIT.HYDE_ESTIMATED_AFFINITY_LOWER_BOUNDARY [nM]>
16.067254

> <BIOSOLVEIT.HYDE_ESTIMATED_AFFINITY_UPPER_BOUNDARY [nM]>
1596.376710

> <BIOSOLVEIT.HYDE_LIGAND_EFFICIENCY range: ++, +, 0, -, -->
0

> <BIOSOLVEIT.HYDE_LIGAND_LIPOPHILIC_EFFICIENCY range: ++, +, 0, -, -->
0

> <BIOSOLVEIT.INTER_CLASH range: red, yellow, green>
green

> <BIOSOLVEIT.INTRA_CLASH range: red, yellow, green>
green

> <BIOSOLVEIT.LOGP>
2.5244

> <BIOSOLVEIT.MOLECULAR WEIGHT>
332.441

> <BIOSOLVEIT.MOLECULE_CHECKSUM>
LTM4Ljc4ODY7MS42MTYxOQ==

> <BIOSOLVEIT.TORSION_QUALITY range: red, yellow, green, not rotatable>
green

> <BIOSOLVEIT.TPSA>
78.43

$$$$
LIG_A_1101_CC(C)SC[R*]_1
anSeeSAR  04022010373D 1   1.00000     0.00000     0
SeeSAR 9.2 andre
 41 41  0  0  0  0            999 V2000
    7.2196    5.6708   21.7730 C   0  0  0  0  0  0  0  0  0  0  0  0
    7.5496    0.0387   20.5844 C   0  0  0  0  0  0  0  0  0  0  0  0
    9.5624    1.6504   22.5129 C   0  0  0  0  0  0  0  0  0  0  0  0
    7.1228    4.3649   22.4951 C   0  0  0  0  0  0  0  0  0  0  0  0
    8.2235    2.2302   22.9491 C   0  0  2  0  0  0  0  0  0  0  0  0
    7.0860    1.2126   22.7621 C   0  0  0  0  0  0  0  0  0  0  0  0
    6.7797    0.9324   21.3114 C   0  0  0  0  0  0  0  0  0  0  0  0
    5.7466    1.5852   20.6549 C   0  0  0  0  0  0  0  0  0  0  0  0
    5.4821    1.3514   19.3160 C   0  0  0  0  0  0  0  0  0  0  0  0
    6.2655    0.4522   18.6141 C   0  0  0  0  0  0  0  0  0  0  0  0
    7.3023   -0.2015   19.2461 C   0  0  0  0  0  0  0  0  0  0  0  0
    8.0211    3.4412   22.1665 N   0  0  0  0  0  0  0  0  0  0  0  0
    6.2465    4.1330   23.3206 O   0  0  0  0  0  0  0  0  0  0  0  0
    6.0543    0.2167   17.2981 O   0  0  0  0  0  0  0  0  0  0  0  0
    9.9579    1.7878   21.3566 O   0  0  0  0  0  0  0  0  0  0  0  0
    6.5003    6.2851   22.0972 H   0  0  0  0  0  0  0  0  0  0  0  0
    8.1138    6.0828   21.9478 H   0  0  0  0  0  0  0  0  0  0  0  0
    7.1095    5.5176   20.7909 H   0  0  0  0  0  0  0  0  0  0  0  0
    8.3000   -0.4426   21.0376 H   0  0  0  0  0  0  0  0  0  0  0  0
    8.2791    2.4772   23.9166 H   0  0  0  0  0  0  0  0  0  0  0  0
    6.2613    1.5724   23.1984 H   0  0  0  0  0  0  0  0  0  0  0  0
    7.3496    0.3550   23.2037 H   0  0  0  0  0  0  0  0  0  0  0  0
    5.1812    2.2380   21.1590 H   0  0  0  0  0  0  0  0  0  0  0  0
    4.7310    1.8286   18.8598 H   0  0  0  0  0  0  0  0  0  0  0  0
    7.8729   -0.8468   18.7381 H   0  0  0  0  0  0  0  0  0  0  0  0
    8.5799    3.5840   21.3496 H   0  0  0  0  0  0  0  0  0  0  0  0
    5.1216    0.1871   16.9389 H   0  0  0  0  0  0  0  0  0  0  0  0
   13.2125   -0.3483   24.4410 C   0  0  0  0  0  0  0  0  0  0  0  0
   12.8025   -0.1849   22.9865 C   0  0  0  0  0  0  0  0  0  0  0  0
   13.6366   -1.1120   22.1177 C   0  0  0  0  0  0  0  0  0  0  0  0
   11.0503   -0.6006   22.8034 S   0  0  0  0  0  0  0  0  0  0  0  0
   10.3282    0.8785   23.5563 C   0  0  0  0  0  0  0  0  0  0  0  0
   12.6637    0.2617   25.0126 H   0  0  0  0  0  0  0  0  0  0  0  0
   13.0631   -1.2954   24.7251 H   0  0  0  0  0  0  0  0  0  0  0  0
   14.1805   -0.1187   24.5423 H   0  0  0  0  0  0  0  0  0  0  0  0
   12.9518    0.7622   22.7025 H   0  0  0  0  0  0  0  0  0  0  0  0
   13.3668   -1.0044   21.1608 H   0  0  0  0  0  0  0  0  0  0  0  0
   14.6046   -0.8823   22.2189 H   0  0  0  0  0  0  0  0  0  0  0  0
   13.4873   -2.0591   22.4017 H   0  0  0  0  0  0  0  0  0  0  0  0
    9.7083    0.6086   24.2932 H   0  0  0  0  0  0  0  0  0  0  0  0
   11.0573    1.4532   23.9279 H   0  0  0  0  0  0  0  0  0  0  0  0
  1  4  1  0  0  0  0
  2  7  2  0  0  0  0
  2 11  1  0  0  0  0
  3  5  1  0  0  0  0
 14 27  1  0  0  0  0
  3 15  2  0  0  0  0
  4 12  1  0  0  0  0
  4 13  2  0  0  0  0
  5  6  1  0  0  0  0
  5 12  1  0  0  0  0
  6  7  1  0  0  0  0
  7  8  1  0  0  0  0
  8  9  2  0  0  0  0
  9 10  1  0  0  0  0
 10 11  2  0  0  0  0
 10 14  1  0  0  0  0
  1 16  1  0  0  0  0
  1 17  1  0  0  0  0
  1 18  1  0  0  0  0
  2 19  1  0  0  0  0
  5 20  1  0  0  0  0
  6 21  1  0  0  0  0
  6 22  1  0  0  0  0
  8 23  1  0  0  0  0
  9 24  1  0  0  0  0
 11 25  1  0  0  0  0
 12 26  1  0  0  0  0
 28 29  1  0  0  0  0
 29 30  1  0  0  0  0
 29 31  1  0  0  0  0
 31 32  1  0  0  0  0
 32 41  1  0  0  0  0
 28 33  1  0  0  0  0
 28 34  1  0  0  0  0
 28 35  1  0  0  0  0
 29 36  1  0  0  0  0
 30 37  1  0  0  0  0
 30 38  1  0  0  0  0
 30 39  1  0  0  0  0
 32 40  1  0  0  0  0
  3 32  1  0  0  0  0
M  END
> <BIOSOLVEIT.HYDE_ESTIMATED_AFFINITY_LOWER_BOUNDARY [nM]>
38.968780

> <BIOSOLVEIT.HYDE_ESTIMATED_AFFINITY_UPPER_BOUNDARY [nM]>
3871.778648

> <BIOSOLVEIT.HYDE_LIGAND_EFFICIENCY range: ++, +, 0, -, -->
+

> <BIOSOLVEIT.HYDE_LIGAND_LIPOPHILIC_EFFICIENCY range: ++, +, 0, -, -->
0

> <BIOSOLVEIT.INTER_CLASH range: red, yellow, green>
green

> <BIOSOLVEIT.INTRA_CLASH range: red, yellow, green>
green

> <BIOSOLVEIT.LOGP>
2.1501

> <BIOSOLVEIT.MOLECULAR WEIGHT>
295.4

> <BIOSOLVEIT.MOLECULE_CHECKSUM>
LTM2LjU5MjM7MS44Mjk2MQ==

> <BIOSOLVEIT.TORSION_QUALITY range: red, yellow, green, not rotatable>
yellow

> <BIOSOLVEIT.TPSA>
66.4

$$$$
LIG_A_1101_CCCC[R*]_2
anSeeSAR  04022010373D 1   1.00000     0.00000     0
SeeSAR 9.2 andre
 42 42  0  0  0  0            999 V2000
    7.2237    5.6200   21.8685 C   0  0  0  0  0  0  0  0  0  0  0  0
    7.5622    0.0907   20.4690 C   0  0  0  0  0  0  0  0  0  0  0  0
    9.6095    1.6027   22.4776 C   0  0  0  0  0  0  0  0  0  0  0  0
    7.1421    4.2914   22.5497 C   0  0  0  0  0  0  0  0  0  0  0  0
    8.2664    2.1556   22.9355 C   0  0  2  0  0  0  0  0  0  0  0  0
    7.1383    1.1331   22.7205 C   0  0  0  0  0  0  0  0  0  0  0  0
    6.7983    0.9295   21.2645 C   0  0  0  0  0  0  0  0  0  0  0  0
    5.7386    1.6007   20.6723 C   0  0  0  0  0  0  0  0  0  0  0  0
    5.4425    1.4379   19.3294 C   0  0  0  0  0  0  0  0  0  0  0  0
    6.2207    0.5925   18.5583 C   0  0  0  0  0  0  0  0  0  0  0  0
    7.2835   -0.0784   19.1260 C   0  0  0  0  0  0  0  0  0  0  0  0
    8.0498    3.3881   22.1913 N   0  0  0  0  0  0  0  0  0  0  0  0
   10.2669    0.8515   23.3537 N   0  0  0  0  0  0  0  0  0  0  0  0
    6.2698    4.0245   23.3688 O   0  0  0  0  0  0  0  0  0  0  0  0
    5.9786    0.4275   17.2370 O   0  0  0  0  0  0  0  0  0  0  0  0
   10.0239    1.8243   21.3409 O   0  0  0  0  0  0  0  0  0  0  0  0
    6.4984    6.2162   22.2128 H   0  0  0  0  0  0  0  0  0  0  0  0
    8.1137    6.0361   22.0549 H   0  0  0  0  0  0  0  0  0  0  0  0
    7.1135    5.4963   20.8823 H   0  0  0  0  0  0  0  0  0  0  0  0
    8.3314   -0.4027   20.8752 H   0  0  0  0  0  0  0  0  0  0  0  0
    8.3228    2.3731   23.9099 H   0  0  0  0  0  0  0  0  0  0  0  0
    6.3204    1.4557   23.1968 H   0  0  0  0  0  0  0  0  0  0  0  0
    7.4248    0.2562   23.1066 H   0  0  0  0  0  0  0  0  0  0  0  0
    5.1768    2.2149   21.2266 H   0  0  0  0  0  0  0  0  0  0  0  0
    4.6725    1.9274   18.9202 H   0  0  0  0  0  0  0  0  0  0  0  0
    7.8502   -0.6847   18.5681 H   0  0  0  0  0  0  0  0  0  0  0  0
    8.6055    3.5623   21.3784 H   0  0  0  0  0  0  0  0  0  0  0  0
    9.9824    0.8495   24.3124 H   0  0  0  0  0  0  0  0  0  0  0  0
    5.3035    1.0039   16.7766 H   0  0  0  0  0  0  0  0  0  0  0  0
   13.6687   -1.6708   23.3551 C   0  0  0  0  0  0  0  0  0  0  0  0
   13.4452   -0.4715   24.2617 C   0  0  0  0  0  0  0  0  0  0  0  0
   12.6917    0.6064   23.4993 C   0  0  0  0  0  0  0  0  0  0  0  0
   11.4066    0.0232   22.9346 C   0  0  0  0  0  0  0  0  0  0  0  0
   14.1643   -2.3799   23.8566 H   0  0  0  0  0  0  0  0  0  0  0  0
   12.7854   -2.0307   23.0546 H   0  0  0  0  0  0  0  0  0  0  0  0
   14.2033   -1.3909   22.5577 H   0  0  0  0  0  0  0  0  0  0  0  0
   14.3284   -0.1116   24.5622 H   0  0  0  0  0  0  0  0  0  0  0  0
   12.9105   -0.7514   25.0590 H   0  0  0  0  0  0  0  0  0  0  0  0
   13.2614    0.9450   22.7505 H   0  0  0  0  0  0  0  0  0  0  0  0
   12.4718    1.3604   24.1182 H   0  0  0  0  0  0  0  0  0  0  0  0
   11.4582    0.0079   21.9360 H   0  0  0  0  0  0  0  0  0  0  0  0
   11.2850   -0.9087   23.2764 H   0  0  0  0  0  0  0  0  0  0  0  0
  1  4  1  0  0  0  0
  2  7  2  0  0  0  0
  2 11  1  0  0  0  0
  3  5  1  0  0  0  0
  3 13  1  0  0  0  0
  3 16  2  0  0  0  0
 15 29  1  0  0  0  0
  4 12  1  0  0  0  0
  4 14  2  0  0  0  0
  5  6  1  0  0  0  0
  5 12  1  0  0  0  0
  6  7  1  0  0  0  0
  7  8  1  0  0  0  0
  8  9  2  0  0  0  0
  9 10  1  0  0  0  0
 10 11  2  0  0  0  0
 10 15  1  0  0  0  0
  1 17  1  0  0  0  0
  1 18  1  0  0  0  0
  1 19  1  0  0  0  0
  2 20  1  0  0  0  0
  5 21  1  0  0  0  0
  6 22  1  0  0  0  0
  6 23  1  0  0  0  0
  8 24  1  0  0  0  0
  9 25  1  0  0  0  0
 11 26  1  0  0  0  0
 12 27  1  0  0  0  0
 13 28  1  0  0  0  0
 30 31  1  0  0  0  0
 31 32  1  0  0  0  0
 32 33  1  0  0  0  0
 33 42  1  0  0  0  0
 30 34  1  0  0  0  0
 30 35  1  0  0  0  0
 30 36  1  0  0  0  0
 31 37  1  0  0  0  0
 31 38  1  0  0  0  0
 32 39  1  0  0  0  0
 32 40  1  0  0  0  0
 33 41  1  0  0  0  0
 13 33  1  0  0  0  0
M  END
> <BIOSOLVEIT.HYDE_ESTIMATED_AFFINITY_LOWER_BOUNDARY [nM]>
52.938810

> <BIOSOLVEIT.HYDE_ESTIMATED_AFFINITY_UPPER_BOUNDARY [nM]>
5259.783805

> <BIOSOLVEIT.HYDE_LIGAND_EFFICIENCY range: ++, +, 0, -, -->
+

> <BIOSOLVEIT.HYDE_LIGAND_LIPOPHILIC_EFFICIENCY range: ++, +, 0, -, -->
0

> <BIOSOLVEIT.INTER_CLASH range: red, yellow, green>
green

> <BIOSOLVEIT.INTRA_CLASH range: red, yellow, green>
green

> <BIOSOLVEIT.LOGP>
1.3557

> <BIOSOLVEIT.MOLECULAR WEIGHT>
278.35

> <BIOSOLVEIT.MOLECULE_CHECKSUM>
LTM1LjgzMjg7MS43OTE2NA==

> <BIOSOLVEIT.TORSION_QUALITY range: red, yellow, green, not rotatable>
yellow

> <BIOSOLVEIT.TPSA>
78.43

$$$$
LIG_A_1101_C[NH+](C)[C@H]([R*])C1CCC1_2
anSeeSAR  04022010373D 1   1.00000     0.00000     0
SeeSAR 9.2 andre
 52 53  0  0  0  0            999 V2000
    7.1701    5.6969   21.7321 C   0  0  0  0  0  0  0  0  0  0  0  0
    7.2588    0.0770   20.4084 C   0  0  0  0  0  0  0  0  0  0  0  0
    9.3146    1.5394   22.3665 C   0  0  0  0  0  0  0  0  0  0  0  0
    6.9977    4.3676   22.3949 C   0  0  0  0  0  0  0  0  0  0  0  0
    8.0109    2.1838   22.8183 C   0  0  2  0  0  0  0  0  0  0  0  0
    6.8153    1.2431   22.5945 C   0  0  0  0  0  0  0  0  0  0  0  0
    6.5231    1.0000   21.1342 C   0  0  0  0  0  0  0  0  0  0  0  0
    5.5390    1.7159   20.4683 C   0  0  0  0  0  0  0  0  0  0  0  0
    5.2888    1.5154   19.1213 C   0  0  0  0  0  0  0  0  0  0  0  0
    6.0372    0.5858   18.4207 C   0  0  0  0  0  0  0  0  0  0  0  0
    7.0254   -0.1309   19.0623 C   0  0  0  0  0  0  0  0  0  0  0  0
    7.8851    3.4300   22.0760 N   0  0  0  0  0  0  0  0  0  0  0  0
    9.9424    0.7882   23.2641 N   0  0  0  0  0  0  0  0  0  0  0  0
    6.0728    4.1310   23.1641 O   0  0  0  0  0  0  0  0  0  0  0  0
    5.8396    0.3804   17.0977 O   0  0  0  0  0  0  0  0  0  0  0  0
    9.7239    1.6924   21.2167 O   0  0  0  0  0  0  0  0  0  0  0  0
    6.4528    6.3202   22.0435 H   0  0  0  0  0  0  0  0  0  0  0  0
    8.0654    6.0740   21.9694 H   0  0  0  0  0  0  0  0  0  0  0  0
    7.1075    5.5855   20.7403 H   0  0  0  0  0  0  0  0  0  0  0  0
    7.9736   -0.4498   20.8684 H   0  0  0  0  0  0  0  0  0  0  0  0
    8.0767    2.3949   23.7936 H   0  0  0  0  0  0  0  0  0  0  0  0
    6.0059    1.6497   23.0183 H   0  0  0  0  0  0  0  0  0  0  0  0
    7.0143    0.3653   23.0303 H   0  0  0  0  0  0  0  0  0  0  0  0
    4.9991    2.3907   20.9715 H   0  0  0  0  0  0  0  0  0  0  0  0
    4.5730    2.0382   18.6584 H   0  0  0  0  0  0  0  0  0  0  0  0
    7.5709   -0.7984   18.5554 H   0  0  0  0  0  0  0  0  0  0  0  0
    8.4900    3.5871   21.2953 H   0  0  0  0  0  0  0  0  0  0  0  0
    9.6722    0.8400   24.2256 H   0  0  0  0  0  0  0  0  0  0  0  0
    6.6119    0.4250   16.4640 H   0  0  0  0  0  0  0  0  0  0  0  0
   12.8717    1.3164   23.4188 C   0  0  0  0  0  0  0  0  0  0  0  0
   12.1771    0.0675   23.7632 N   0  3  0  0  0  0  0  0  0  0  0  0
   13.1028   -1.0648   23.6155 C   0  0  0  0  0  0  0  0  0  0  0  0
   11.0285   -0.1182   22.8647 C   0  0  1  0  0  0  0  0  0  0  0  0
   10.5442   -1.5601   22.9509 C   0  0  0  0  0  0  0  0  0  0  0  0
    9.5408   -1.9019   21.8768 C   0  0  0  0  0  0  0  0  0  0  0  0
    8.8086   -2.7231   22.9091 C   0  0  0  0  0  0  0  0  0  0  0  0
    9.3713   -1.7334   23.8991 C   0  0  0  0  0  0  0  0  0  0  0  0
   11.8561    0.1145   24.7091 H   0  0  0  0  0  0  0  0  0  0  0  0
   11.3040    0.0853   21.9252 H   0  0  0  0  0  0  0  0  0  0  0  0
   12.2419    2.0867   23.5193 H   0  0  0  0  0  0  0  0  0  0  0  0
   13.6530    1.4427   24.0300 H   0  0  0  0  0  0  0  0  0  0  0  0
   13.1926    1.2694   22.4729 H   0  0  0  0  0  0  0  0  0  0  0  0
   12.6303   -1.9144   23.8497 H   0  0  0  0  0  0  0  0  0  0  0  0
   13.4237   -1.1118   22.6695 H   0  0  0  0  0  0  0  0  0  0  0  0
   13.8841   -0.9385   24.2267 H   0  0  0  0  0  0  0  0  0  0  0  0
   11.2729   -2.2352   23.0664 H   0  0  0  0  0  0  0  0  0  0  0  0
    9.9121   -2.4288   21.1123 H   0  0  0  0  0  0  0  0  0  0  0  0
    9.0257   -1.1207   21.5241 H   0  0  0  0  0  0  0  0  0  0  0  0
    9.1336   -3.6629   23.0146 H   0  0  0  0  0  0  0  0  0  0  0  0
    7.8121   -2.7224   22.8255 H   0  0  0  0  0  0  0  0  0  0  0  0
    8.8157   -0.9124   24.0306 H   0  0  0  0  0  0  0  0  0  0  0  0
    9.6079   -2.1219   24.7896 H   0  0  0  0  0  0  0  0  0  0  0  0
  1  4  1  0  0  0  0
  2  7  2  0  0  0  0
  2 11  1  0  0  0  0
  3  5  1  0  0  0  0
  3 13  1  0  0  0  0
  3 16  2  0  0  0  0
 15 29  1  0  0  0  0
  4 12  1  0  0  0  0
  4 14  2  0  0  0  0
  5  6  1  0  0  0  0
  5 12  1  0  0  0  0
  6  7  1  0  0  0  0
  7  8  1  0  0  0  0
  8  9  2  0  0  0  0
  9 10  1  0  0  0  0
 10 11  2  0  0  0  0
 10 15  1  0  0  0  0
  1 17  1  0  0  0  0
  1 18  1  0  0  0  0
  1 19  1  0  0  0  0
  2 20  1  0  0  0  0
  5 21  1  0  0  0  0
  6 22  1  0  0  0  0
  6 23  1  0  0  0  0
  8 24  1  0  0  0  0
  9 25  1  0  0  0  0
 11 26  1  0  0  0  0
 12 27  1  0  0  0  0
 13 28  1  0  0  0  0
 30 31  1  0  0  0  0
 31 32  1  0  0  0  0
 31 33  1  0  0  0  0
 37 52  1  0  0  0  0
 33 34  1  0  0  0  0
 34 35  1  0  0  0  0
 35 36  1  0  0  0  0
 36 37  1  0  0  0  0
 37 34  1  0  0  0  0
 31 38  1  0  0  0  0
 33 39  1  0  0  0  0
 30 40  1  0  0  0  0
 30 41  1  0  0  0  0
 30 42  1  0  0  0  0
 32 43  1  0  0  0  0
 32 44  1  0  0  0  0
 32 45  1  0  0  0  0
 34 46  1  0  0  0  0
 35 47  1  0  0  0  0
 35 48  1  0  0  0  0
 36 49  1  0  0  0  0
 36 50  1  0  0  0  0
 37 51  1  0  0  0  0
 13 33  1  0  0  0  0
M  CHG  1  31   1
M  END
> <BIOSOLVEIT.HYDE_ESTIMATED_AFFINITY_LOWER_BOUNDARY [nM]>
73.227225

> <BIOSOLVEIT.HYDE_ESTIMATED_AFFINITY_UPPER_BOUNDARY [nM]>
7275.557743

> <BIOSOLVEIT.HYDE_LIGAND_EFFICIENCY range: ++, +, 0, -, -->
0

> <BIOSOLVEIT.HYDE_LIGAND_LIPOPHILIC_EFFICIENCY range: ++, +, 0, -, -->
+

> <BIOSOLVEIT.INTER_CLASH range: red, yellow, green>
green

> <BIOSOLVEIT.INTRA_CLASH range: red, yellow, green>
green

> <BIOSOLVEIT.LOGP>
-0.1737

> <BIOSOLVEIT.MOLECULAR WEIGHT>
334.437

> <BIOSOLVEIT.MOLECULE_CHECKSUM>
LTM1LjAyODU7MS40NTk1Mg==

> <BIOSOLVEIT.TORSION_QUALITY range: red, yellow, green, not rotatable>
green

> <BIOSOLVEIT.TPSA>
82.87

$$$$
LIG_A_1101_CC(C)CC[C@]1([R*])CCCOC1_2
anSeeSAR  04022010373D 1   1.00000     0.00000     0
SeeSAR 9.2 andre
 59 60  0  0  0  0            999 V2000
    7.2671    5.9951   21.5296 C   0  0  0  0  0  0  0  0  0  0  0  0
    6.2783    0.0020   20.6291 C   0  0  0  0  0  0  0  0  0  0  0  0
    8.4496    1.4785   22.3249 C   0  0  0  0  0  0  0  0  0  0  0  0
    6.7641    4.7273   22.1426 C   0  0  0  0  0  0  0  0  0  0  0  0
    7.3030    2.4087   22.6980 C   0  0  2  0  0  0  0  0  0  0  0  0
    5.9398    1.7663   22.3921 C   0  0  0  0  0  0  0  0  0  0  0  0
    5.8298    1.2673   20.9723 C   0  0  0  0  0  0  0  0  0  0  0  0
    5.3130    2.0696   19.9655 C   0  0  0  0  0  0  0  0  0  0  0  0
    5.2380    1.6246   18.6564 C   0  0  0  0  0  0  0  0  0  0  0  0
    5.6914    0.3556   18.3417 C   0  0  0  0  0  0  0  0  0  0  0  0
    6.2158   -0.4550   19.3264 C   0  0  0  0  0  0  0  0  0  0  0  0
    7.5142    3.6449   21.9583 N   0  0  0  0  0  0  0  0  0  0  0  0
    8.8150    0.5949   23.2468 N   0  0  0  0  0  0  0  0  0  0  0  0
    5.7026    4.6677   22.7530 O   0  0  0  0  0  0  0  0  0  0  0  0
    5.6585   -0.1049   17.0694 O   0  0  0  0  0  0  0  0  0  0  0  0
    8.9682    1.5383   21.2112 O   0  0  0  0  0  0  0  0  0  0  0  0
    6.6289    6.7384   21.7300 H   0  0  0  0  0  0  0  0  0  0  0  0
    8.1655    6.2155   21.9095 H   0  0  0  0  0  0  0  0  0  0  0  0
    7.3434    5.8791   20.5392 H   0  0  0  0  0  0  0  0  0  0  0  0
    6.6552   -0.5930   21.3390 H   0  0  0  0  0  0  0  0  0  0  0  0
    7.3537    2.6063   23.6770 H   0  0  0  0  0  0  0  0  0  0  0  0
    5.2243    2.4475   22.5470 H   0  0  0  0  0  0  0  0  0  0  0  0
    5.8048    0.9940   23.0128 H   0  0  0  0  0  0  0  0  0  0  0  0
    4.9879    2.9883   20.1898 H   0  0  0  0  0  0  0  0  0  0  0  0
    4.8592    2.2156   17.9442 H   0  0  0  0  0  0  0  0  0  0  0  0
    6.5494   -1.3698   19.0987 H   0  0  0  0  0  0  0  0  0  0  0  0
    8.2527    3.6814   21.2850 H   0  0  0  0  0  0  0  0  0  0  0  0
    8.4933    0.7026   24.1875 H   0  0  0  0  0  0  0  0  0  0  0  0
    6.4243    0.0761   16.4522 H   0  0  0  0  0  0  0  0  0  0  0  0
   13.2799    1.0901   22.9655 C   0  0  0  0  0  0  0  0  0  0  0  0
   13.4091   -0.4241   22.9405 C   0  0  0  0  0  0  0  0  0  0  0  0
   13.7772   -0.9242   24.3279 C   0  0  0  0  0  0  0  0  0  0  0  0
   12.0855   -1.0386   22.5152 C   0  0  0  0  0  0  0  0  0  0  0  0
   11.0185    0.0428   22.4627 C   0  0  0  0  0  0  0  0  0  0  0  0
    9.6854   -0.5390   22.9042 C   0  0  1  0  0  0  0  0  0  0  0  0
    9.8979   -1.4477   24.1062 C   0  0  0  0  0  0  0  0  0  0  0  0
    8.5850   -2.0963   24.5172 C   0  0  0  0  0  0  0  0  0  0  0  0
    7.9435   -2.7988   23.3291 C   0  0  0  0  0  0  0  0  0  0  0  0
    7.8049   -1.9522   22.1927 O   0  0  0  0  0  0  0  0  0  0  0  0
    9.0353   -1.3549   21.7940 C   0  0  0  0  0  0  0  0  0  0  0  0
   13.0377    1.4191   22.0527 H   0  0  0  0  0  0  0  0  0  0  0  0
   12.5663    1.3531   23.6148 H   0  0  0  0  0  0  0  0  0  0  0  0
   14.1507    1.4944   23.2453 H   0  0  0  0  0  0  0  0  0  0  0  0
   14.1227   -0.6871   22.2912 H   0  0  0  0  0  0  0  0  0  0  0  0
   13.8622   -1.9204   24.3114 H   0  0  0  0  0  0  0  0  0  0  0  0
   14.6479   -0.5199   24.6078 H   0  0  0  0  0  0  0  0  0  0  0  0
   13.0636   -0.6612   24.9772 H   0  0  0  0  0  0  0  0  0  0  0  0
   11.8166   -1.7405   23.1748 H   0  0  0  0  0  0  0  0  0  0  0  0
   12.1855   -1.4523   21.6103 H   0  0  0  0  0  0  0  0  0  0  0  0
   10.9385    0.3871   21.5273 H   0  0  0  0  0  0  0  0  0  0  0  0
   11.2735    0.7926   23.0732 H   0  0  0  0  0  0  0  0  0  0  0  0
   10.2519   -0.9073   24.8695 H   0  0  0  0  0  0  0  0  0  0  0  0
   10.5576   -2.1605   23.8682 H   0  0  0  0  0  0  0  0  0  0  0  0
    7.9626   -1.3921   24.8587 H   0  0  0  0  0  0  0  0  0  0  0  0
    8.7602   -2.7651   25.2397 H   0  0  0  0  0  0  0  0  0  0  0  0
    7.0360   -3.1197   23.6003 H   0  0  0  0  0  0  0  0  0  0  0  0
    8.5121   -3.5815   23.0763 H   0  0  0  0  0  0  0  0  0  0  0  0
    9.6672   -2.0793   21.5185 H   0  0  0  0  0  0  0  0  0  0  0  0
    8.8598   -0.7519   21.0158 H   0  0  0  0  0  0  0  0  0  0  0  0
  1  4  1  0  0  0  0
  2  7  2  0  0  0  0
  2 11  1  0  0  0  0
  3  5  1  0  0  0  0
  3 13  1  0  0  0  0
  3 16  2  0  0  0  0
 15 29  1  0  0  0  0
  4 12  1  0  0  0  0
  4 14  2  0  0  0  0
  5  6  1  0  0  0  0
  5 12  1  0  0  0  0
  6  7  1  0  0  0  0
  7  8  1  0  0  0  0
  8  9  2  0  0  0  0
  9 10  1  0  0  0  0
 10 11  2  0  0  0  0
 10 15  1  0  0  0  0
  1 17  1  0  0  0  0
  1 18  1  0  0  0  0
  1 19  1  0  0  0  0
  2 20  1  0  0  0  0
  5 21  1  0  0  0  0
  6 22  1  0  0  0  0
  6 23  1  0  0  0  0
  8 24  1  0  0  0  0
  9 25  1  0  0  0  0
 11 26  1  0  0  0  0
 12 27  1  0  0  0  0
 13 28  1  0  0  0  0
 30 31  1  0  0  0  0
 31 32  1  0  0  0  0
 31 33  1  0  0  0  0
 33 34  1  0  0  0  0
 34 35  1  0  0  0  0
 40 59  1  0  0  0  0
 35 36  1  0  0  0  0
 36 37  1  0  0  0  0
 37 38  1  0  0  0  0
 38 39  1  0  0  0  0
 39 40  1  0  0  0  0
 40 35  1  0  0  0  0
 30 41  1  0  0  0  0
 30 42  1  0  0  0  0
 30 43  1  0  0  0  0
 31 44  1  0  0  0  0
 32 45  1  0  0  0  0
 32 46  1  0  0  0  0
 32 47  1  0  0  0  0
 33 48  1  0  0  0  0
 33 49  1  0  0  0  0
 34 50  1  0  0  0  0
 34 51  1  0  0  0  0
 36 52  1  0  0  0  0
 36 53  1  0  0  0  0
 37 54  1  0  0  0  0
 37 55  1  0  0  0  0
 38 56  1  0  0  0  0
 38 57  1  0  0  0  0
 40 58  1  0  0  0  0
 13 35  1  0  0  0  0
M  END
> <BIOSOLVEIT.HYDE_ESTIMATED_AFFINITY_LOWER_BOUNDARY [nM]>
93.123469

> <BIOSOLVEIT.HYDE_ESTIMATED_AFFINITY_UPPER_BOUNDARY [nM]>
9252.367271

> <BIOSOLVEIT.HYDE_LIGAND_EFFICIENCY range: ++, +, 0, -, -->
0

> <BIOSOLVEIT.HYDE_LIGAND_LIPOPHILIC_EFFICIENCY range: ++, +, 0, -, -->
-

> <BIOSOLVEIT.INTER_CLASH range: red, yellow, green>
green

> <BIOSOLVEIT.INTRA_CLASH range: red, yellow, green>
yellow

> <BIOSOLVEIT.LOGP>
2.541

> <BIOSOLVEIT.MOLECULAR WEIGHT>
376.494

> <BIOSOLVEIT.MOLECULE_CHECKSUM>
LTM0LjQzMjc7MS4yNzUyOA==

> <BIOSOLVEIT.TORSION_QUALITY range: red, yellow, green, not rotatable>
red

> <BIOSOLVEIT.TPSA>
87.66

$$$$
LIG_A_1101_2_02
anSeeSAR  04022010373D 1   1.00000     0.00000     0
SeeSAR 9.2 andre
 35 35  0  0  0  0            999 V2000
    7.5654    5.8293   21.9018 C   0  0  0  0  0  0  0  0  0  0  0  0
    6.3977   -0.1627   20.6240 C   0  0  0  0  0  0  0  0  0  0  0  0
    8.6892    1.2284   22.1336 C   0  0  0  0  0  0  0  0  0  0  0  0
    9.5856   -1.0143   22.0873 C   0  0  0  0  0  0  0  0  0  0  0  0
   10.9803   -0.9501   22.5265 C   0  0  0  0  0  0  0  0  0  0  0  0
   12.0935   -1.0483   22.9600 C   0  0  0  0  0  0  0  0  0  0  0  0
    7.0725    4.5084   22.4002 C   0  0  0  0  0  0  0  0  0  0  0  0
    7.6089    2.1422   22.6968 C   0  0  2  0  0  0  0  0  0  0  0  0
    6.2041    1.5741   22.4355 C   0  0  0  0  0  0  0  0  0  0  0  0
    6.0122    1.1103   21.0124 C   0  0  0  0  0  0  0  0  0  0  0  0
    5.4810    1.9524   20.0465 C   0  0  0  0  0  0  0  0  0  0  0  0
    5.3310    1.5389   18.7335 C   0  0  0  0  0  0  0  0  0  0  0  0
    5.7225    0.2614   18.3731 C   0  0  0  0  0  0  0  0  0  0  0  0
    6.2600   -0.5888   19.3165 C   0  0  0  0  0  0  0  0  0  0  0  0
    7.8055    3.4463   22.0797 N   0  0  0  0  0  0  0  0  0  0  0  0
    8.8157    0.0397   22.7124 N   0  0  0  0  0  0  0  0  0  0  0  0
    6.0326    4.3929   23.0392 O   0  0  0  0  0  0  0  0  0  0  0  0
    5.6157   -0.1699   17.0947 O   0  0  0  0  0  0  0  0  0  0  0  0
    9.3697    1.5812   21.1719 O   0  0  0  0  0  0  0  0  0  0  0  0
   13.8099   -1.3885   23.7768 Br  0  0  0  0  0  0  0  0  0  0  0  0
    6.9416    6.5519   22.1997 H   0  0  0  0  0  0  0  0  0  0  0  0
    8.4786    6.0047   22.2696 H   0  0  0  0  0  0  0  0  0  0  0  0
    7.6057    5.8146   20.9027 H   0  0  0  0  0  0  0  0  0  0  0  0
    6.7836   -0.7862   21.3039 H   0  0  0  0  0  0  0  0  0  0  0  0
    9.1996   -1.9009   22.3421 H   0  0  0  0  0  0  0  0  0  0  0  0
    9.5469   -0.9070   21.0939 H   0  0  0  0  0  0  0  0  0  0  0  0
    7.7428    2.2293   23.6839 H   0  0  0  0  0  0  0  0  0  0  0  0
    5.5304    2.2864   22.6323 H   0  0  0  0  0  0  0  0  0  0  0  0
    6.0557    0.7968   23.0469 H   0  0  0  0  0  0  0  0  0  0  0  0
    5.2005    2.8772   20.3037 H   0  0  0  0  0  0  0  0  0  0  0  0
    4.9429    2.1584   18.0512 H   0  0  0  0  0  0  0  0  0  0  0  0
    6.5489   -1.5099   19.0557 H   0  0  0  0  0  0  0  0  0  0  0  0
    8.5201    3.5471   21.3875 H   0  0  0  0  0  0  0  0  0  0  0  0
    8.3726   -0.1294   23.5927 H   0  0  0  0  0  0  0  0  0  0  0  0
    6.3637   -0.0129   16.4499 H   0  0  0  0  0  0  0  0  0  0  0  0
  1  7  1  0  0  0  0
  2 10  2  0  0  0  0
  2 14  1  0  0  0  0
  3  8  1  0  0  0  0
  3 16  1  0  0  0  0
  3 19  2  0  0  0  0
  4  5  1  0  0  0  0
  4 16  1  0  0  0  0
  5  6  3  0  0  0  0
  6 20  1  0  0  0  0
  7 15  1  0  0  0  0
  7 17  2  0  0  0  0
  8  9  1  0  0  0  0
  8 15  1  0  0  0  0
  9 10  1  0  0  0  0
 10 11  1  0  0  0  0
 11 12  2  0  0  0  0
 12 13  1  0  0  0  0
 13 14  2  0  0  0  0
 13 18  1  0  0  0  0
  1 21  1  0  0  0  0
  1 22  1  0  0  0  0
  1 23  1  0  0  0  0
  2 24  1  0  0  0  0
  4 25  1  0  0  0  0
  4 26  1  0  0  0  0
  8 27  1  0  0  0  0
  9 28  1  0  0  0  0
  9 29  1  0  0  0  0
 11 30  1  0  0  0  0
 12 31  1  0  0  0  0
 14 32  1  0  0  0  0
 15 33  1  0  0  0  0
 16 34  1  0  0  0  0
 18 35  1  0  0  0  0
M  END
> <BIOSOLVEIT.HYDE_ESTIMATED_AFFINITY_LOWER_BOUNDARY [nM]>
189.260159

> <BIOSOLVEIT.HYDE_ESTIMATED_AFFINITY_UPPER_BOUNDARY [nM]>
18804.115768

> <BIOSOLVEIT.HYDE_LIGAND_EFFICIENCY range: ++, +, 0, -, -->
0

> <BIOSOLVEIT.HYDE_LIGAND_LIPOPHILIC_EFFICIENCY range: ++, +, 0, -, -->
0

> <BIOSOLVEIT.INTER_CLASH range: red, yellow, green>
green

> <BIOSOLVEIT.INTRA_CLASH range: red, yellow, green>
yellow

> <BIOSOLVEIT.LOGP>
0.9114

> <BIOSOLVEIT.MOLECULAR WEIGHT>
339.188

> <BIOSOLVEIT.MOLECULE_CHECKSUM>
LTMyLjY3NDY7MS42MzM3Mw==

> <BIOSOLVEIT.TORSION_QUALITY range: red, yellow, green, not rotatable>
green

> <BIOSOLVEIT.TPSA>
78.43

$$$$
LIG_A_1101_CC(C)SC[R*]_2
anSeeSAR  04022010373D 1   1.00000     0.00000     0
SeeSAR 9.2 andre
 43 43  0  0  0  0            999 V2000
    7.7405    5.6577   22.2790 C   0  0  0  0  0  0  0  0  0  0  0  0
    7.0954    0.1620   20.3581 C   0  0  0  0  0  0  0  0  0  0  0  0
    9.2356    1.1726   22.2417 C   0  0  0  0  0  0  0  0  0  0  0  0
    7.3846    4.2876   22.7609 C   0  0  0  0  0  0  0  0  0  0  0  0
    8.0795    1.9463   22.8615 C   0  0  2  0  0  0  0  0  0  0  0  0
    6.7351    1.2470   22.6005 C   0  0  0  0  0  0  0  0  0  0  0  0
    6.4255    1.0966   21.1313 C   0  0  0  0  0  0  0  0  0  0  0  0
    5.4922    1.9100   20.5056 C   0  0  0  0  0  0  0  0  0  0  0  0
    5.2275    1.7935   19.1514 C   0  0  0  0  0  0  0  0  0  0  0  0
    5.9097    0.8503   18.4030 C   0  0  0  0  0  0  0  0  0  0  0  0
    6.8470    0.0370   19.0044 C   0  0  0  0  0  0  0  0  0  0  0  0
    8.1280    3.2875   22.2969 N   0  0  0  0  0  0  0  0  0  0  0  0
    9.5845    0.0458   22.8521 N   0  0  0  0  0  0  0  0  0  0  0  0
    6.4396    4.0800   23.5139 O   0  0  0  0  0  0  0  0  0  0  0  0
    5.6972    0.7242   17.0723 O   0  0  0  0  0  0  0  0  0  0  0  0
    9.7761    1.5719   21.2116 O   0  0  0  0  0  0  0  0  0  0  0  0
    7.1207    6.3268   22.6890 H   0  0  0  0  0  0  0  0  0  0  0  0
    8.6816    5.8697   22.5426 H   0  0  0  0  0  0  0  0  0  0  0  0
    7.6574    5.6928   21.2831 H   0  0  0  0  0  0  0  0  0  0  0  0
    7.7729   -0.4344   20.7886 H   0  0  0  0  0  0  0  0  0  0  0  0
    8.2249    2.0069   23.8490 H   0  0  0  0  0  0  0  0  0  0  0  0
    6.0078    1.7853   23.0262 H   0  0  0  0  0  0  0  0  0  0  0  0
    6.7630    0.3375   23.0153 H   0  0  0  0  0  0  0  0  0  0  0  0
    5.0004    2.5946   21.0435 H   0  0  0  0  0  0  0  0  0  0  0  0
    4.5488    2.3862   18.7178 H   0  0  0  0  0  0  0  0  0  0  0  0
    7.3449   -0.6406   18.4631 H   0  0  0  0  0  0  0  0  0  0  0  0
    8.7449    3.4635   21.5298 H   0  0  0  0  0  0  0  0  0  0  0  0
    9.2439   -0.1415   23.7734 H   0  0  0  0  0  0  0  0  0  0  0  0
    5.3432    1.4979   16.5470 H   0  0  0  0  0  0  0  0  0  0  0  0
   13.9068   -0.9128   24.4256 C   0  0  0  0  0  0  0  0  0  0  0  0
   12.4210   -0.8027   24.1248 C   0  0  0  0  0  0  0  0  0  0  0  0
   11.8114    0.2975   24.9781 C   0  0  0  0  0  0  0  0  0  0  0  0
   12.1877   -0.4074   22.3739 S   0  0  0  0  0  0  0  0  0  0  0  0
   10.4643   -0.9301   22.1928 C   0  0  0  0  0  0  0  0  0  0  0  0
   14.3079   -1.6366   23.8641 H   0  0  0  0  0  0  0  0  0  0  0  0
   14.3544   -0.0430   24.2177 H   0  0  0  0  0  0  0  0  0  0  0  0
   14.0358   -1.1311   25.3929 H   0  0  0  0  0  0  0  0  0  0  0  0
   11.9734   -1.6724   24.3326 H   0  0  0  0  0  0  0  0  0  0  0  0
   10.8338    0.3699   24.7802 H   0  0  0  0  0  0  0  0  0  0  0  0
   11.9403    0.0791   25.9455 H   0  0  0  0  0  0  0  0  0  0  0  0
   12.2589    1.1673   24.7702 H   0  0  0  0  0  0  0  0  0  0  0  0
   10.2328   -0.9847   21.2215 H   0  0  0  0  0  0  0  0  0  0  0  0
   10.3421   -1.8280   22.6156 H   0  0  0  0  0  0  0  0  0  0  0  0
  1  4  1  0  0  0  0
  2  7  2  0  0  0  0
  2 11  1  0  0  0  0
  3  5  1  0  0  0  0
  3 13  1  0  0  0  0
  3 16  2  0  0  0  0
 15 29  1  0  0  0  0
  4 12  1  0  0  0  0
  4 14  2  0  0  0  0
  5  6  1  0  0  0  0
  5 12  1  0  0  0  0
  6  7  1  0  0  0  0
  7  8  1  0  0  0  0
  8  9  2  0  0  0  0
  9 10  1  0  0  0  0
 10 11  2  0  0  0  0
 10 15  1  0  0  0  0
  1 17  1  0  0  0  0
  1 18  1  0  0  0  0
  1 19  1  0  0  0  0
  2 20  1  0  0  0  0
  5 21  1  0  0  0  0
  6 22  1  0  0  0  0
  6 23  1  0  0  0  0
  8 24  1  0  0  0  0
  9 25  1  0  0  0  0
 11 26  1  0  0  0  0
 12 27  1  0  0  0  0
 13 28  1  0  0  0  0
 30 31  1  0  0  0  0
 31 32  1  0  0  0  0
 31 33  1  0  0  0  0
 33 34  1  0  0  0  0
 34 43  1  0  0  0  0
 30 35  1  0  0  0  0
 30 36  1  0  0  0  0
 30 37  1  0  0  0  0
 31 38  1  0  0  0  0
 32 39  1  0  0  0  0
 32 40  1  0  0  0  0
 32 41  1  0  0  0  0
 34 42  1  0  0  0  0
 13 34  1  0  0  0  0
M  END
> <BIOSOLVEIT.HYDE_ESTIMATED_AFFINITY_LOWER_BOUNDARY [nM]>
276.054639

> <BIOSOLVEIT.HYDE_ESTIMATED_AFFINITY_UPPER_BOUNDARY [nM]>
27427.660583

> <BIOSOLVEIT.HYDE_LIGAND_EFFICIENCY range: ++, +, 0, -, -->
0

> <BIOSOLVEIT.HYDE_LIGAND_LIPOPHILIC_EFFICIENCY range: ++, +, 0, -, -->
0

> <BIOSOLVEIT.INTER_CLASH range: red, yellow, green>
green

> <BIOSOLVEIT.INTRA_CLASH range: red, yellow, green>
yellow

> <BIOSOLVEIT.LOGP>
1.6547

> <BIOSOLVEIT.MOLECULAR WEIGHT>
310.415

> <BIOSOLVEIT.MOLECULE_CHECKSUM>
LTMxLjczODk7MS41MTEzNw==

> <BIOSOLVEIT.TORSION_QUALITY range: red, yellow, green, not rotatable>
green

> <BIOSOLVEIT.TPSA>
78.43

$$$$
LIG_A_1101_CCCC[R*]_1
anSeeSAR  04022010373D 1   1.00000     0.00000     0
SeeSAR 9.2 andre
 40 40  0  0  0  0            999 V2000
    7.1533    5.6506   21.7559 C   0  0  0  0  0  0  0  0  0  0  0  0
    7.6147    0.0404   20.5761 C   0  0  0  0  0  0  0  0  0  0  0  0
    9.6252    1.7202   22.5254 C   0  0  0  0  0  0  0  0  0  0  0  0
    7.1030    4.3526   22.4967 C   0  0  0  0  0  0  0  0  0  0  0  0
    8.2631    2.2501   22.9533 C   0  0  2  0  0  0  0  0  0  0  0  0
    7.1674    1.1867   22.7719 C   0  0  0  0  0  0  0  0  0  0  0  0
    6.8437    0.9165   21.3230 C   0  0  0  0  0  0  0  0  0  0  0  0
    5.7924    1.5616   20.6881 C   0  0  0  0  0  0  0  0  0  0  0  0
    5.5115    1.3373   19.3509 C   0  0  0  0  0  0  0  0  0  0  0  0
    6.2965    0.4556   18.6289 C   0  0  0  0  0  0  0  0  0  0  0  0
    7.3510   -0.1901   19.2393 C   0  0  0  0  0  0  0  0  0  0  0  0
    8.0152    3.4456   22.1600 N   0  0  0  0  0  0  0  0  0  0  0  0
    6.2508    4.1116   23.3445 O   0  0  0  0  0  0  0  0  0  0  0  0
    6.0692    0.2301   17.3138 O   0  0  0  0  0  0  0  0  0  0  0  0
    9.9830    1.7875   21.3508 O   0  0  0  0  0  0  0  0  0  0  0  0
    6.4272    6.2524   22.0883 H   0  0  0  0  0  0  0  0  0  0  0  0
    8.0413    6.0855   21.9054 H   0  0  0  0  0  0  0  0  0  0  0  0
    7.0251    5.4818   20.7786 H   0  0  0  0  0  0  0  0  0  0  0  0
    8.3780   -0.4351   21.0136 H   0  0  0  0  0  0  0  0  0  0  0  0
    8.3061    2.5072   23.9187 H   0  0  0  0  0  0  0  0  0  0  0  0
    6.3370    1.5030   23.2306 H   0  0  0  0  0  0  0  0  0  0  0  0
    7.4771    0.3345   23.1937 H   0  0  0  0  0  0  0  0  0  0  0  0
    5.2258    2.2018   21.2069 H   0  0  0  0  0  0  0  0  0  0  0  0
    4.7474    1.8087   18.9105 H   0  0  0  0  0  0  0  0  0  0  0  0
    7.9227   -0.8227   18.7167 H   0  0  0  0  0  0  0  0  0  0  0  0
    8.5523    3.5903   21.3289 H   0  0  0  0  0  0  0  0  0  0  0  0
    5.1317    0.1911   16.9680 H   0  0  0  0  0  0  0  0  0  0  0  0
   13.6445   -1.0312   23.4261 C   0  0  0  0  0  0  0  0  0  0  0  0
   12.5153   -0.2364   24.0612 C   0  0  0  0  0  0  0  0  0  0  0  0
   11.6468    0.3699   22.9709 C   0  0  0  0  0  0  0  0  0  0  0  0
   10.4637    1.0839   23.6040 C   0  0  0  0  0  0  0  0  0  0  0  0
   14.2158   -1.4301   24.1434 H   0  0  0  0  0  0  0  0  0  0  0  0
   13.2611   -1.7615   22.8606 H   0  0  0  0  0  0  0  0  0  0  0  0
   14.1994   -0.4250   22.8565 H   0  0  0  0  0  0  0  0  0  0  0  0
   12.8986    0.4938   24.6267 H   0  0  0  0  0  0  0  0  0  0  0  0
   11.9603   -0.8427   24.6309 H   0  0  0  0  0  0  0  0  0  0  0  0
   11.3147   -0.3552   22.3676 H   0  0  0  0  0  0  0  0  0  0  0  0
   12.1861    1.0240   22.4405 H   0  0  0  0  0  0  0  0  0  0  0  0
    9.9092    0.4246   24.1118 H   0  0  0  0  0  0  0  0  0  0  0  0
   10.7961    1.7908   24.2283 H   0  0  0  0  0  0  0  0  0  0  0  0
  1  4  1  0  0  0  0
  2  7  2  0  0  0  0
  2 11  1  0  0  0  0
  3  5  1  0  0  0  0
 14 27  1  0  0  0  0
  3 15  2  0  0  0  0
  4 12  1  0  0  0  0
  4 13  2  0  0  0  0
  5  6  1  0  0  0  0
  5 12  1  0  0  0  0
  6  7  1  0  0  0  0
  7  8  1  0  0  0  0
  8  9  2  0  0  0  0
  9 10  1  0  0  0  0
 10 11  2  0  0  0  0
 10 14  1  0  0  0  0
  1 16  1  0  0  0  0
  1 17  1  0  0  0  0
  1 18  1  0  0  0  0
  2 19  1  0  0  0  0
  5 20  1  0  0  0  0
  6 21  1  0  0  0  0
  6 22  1  0  0  0  0
  8 23  1  0  0  0  0
  9 24  1  0  0  0  0
 11 25  1  0  0  0  0
 12 26  1  0  0  0  0
 28 29  1  0  0  0  0
 29 30  1  0  0  0  0
 30 31  1  0  0  0  0
 31 40  1  0  0  0  0
 28 32  1  0  0  0  0
 28 33  1  0  0  0  0
 28 34  1  0  0  0  0
 29 35  1  0  0  0  0
 29 36  1  0  0  0  0
 30 37  1  0  0  0  0
 30 38  1  0  0  0  0
 31 39  1  0  0  0  0
  3 31  1  0  0  0  0
M  END
> <BIOSOLVEIT.HYDE_ESTIMATED_AFFINITY_LOWER_BOUNDARY [nM]>
300.862653

> <BIOSOLVEIT.HYDE_ESTIMATED_AFFINITY_UPPER_BOUNDARY [nM]>
29892.483410

> <BIOSOLVEIT.HYDE_LIGAND_EFFICIENCY range: ++, +, 0, -, -->
0

> <BIOSOLVEIT.HYDE_LIGAND_LIPOPHILIC_EFFICIENCY range: ++, +, 0, -, -->
-

> <BIOSOLVEIT.INTER_CLASH range: red, yellow, green>
green

> <BIOSOLVEIT.INTRA_CLASH range: red, yellow, green>
green

> <BIOSOLVEIT.LOGP>
2.1987

> <BIOSOLVEIT.MOLECULAR WEIGHT>
263.335

> <BIOSOLVEIT.MOLECULE_CHECKSUM>
LTMxLjUyNTU7MS42NTkyNA==

> <BIOSOLVEIT.TORSION_QUALITY range: red, yellow, green, not rotatable>
green

> <BIOSOLVEIT.TPSA>
66.4

$$$$
LIG_A_1101_C[C@@H]([R*])CSC1CCCC1_2
anSeeSAR  04022010373D 1   1.00000     0.00000     0
SeeSAR 9.2 andre
 53 54  0  0  0  0            999 V2000
    7.2697    5.7405   21.8058 C   0  0  0  0  0  0  0  0  0  0  0  0
    6.9491   -0.0590   20.4972 C   0  0  0  0  0  0  0  0  0  0  0  0
    9.0712    1.3875   22.2648 C   0  0  0  0  0  0  0  0  0  0  0  0
    6.9881    4.3979   22.4007 C   0  0  0  0  0  0  0  0  0  0  0  0
    7.8523    2.1427   22.7777 C   0  0  2  0  0  0  0  0  0  0  0  0
    6.5613    1.3375   22.5551 C   0  0  0  0  0  0  0  0  0  0  0  0
    6.3133    1.0132   21.1024 C   0  0  0  0  0  0  0  0  0  0  0  0
    5.4742    1.7963   20.3233 C   0  0  0  0  0  0  0  0  0  0  0  0
    5.2678    1.5178   18.9827 C   0  0  0  0  0  0  0  0  0  0  0  0
    5.9140    0.4396   18.4039 C   0  0  0  0  0  0  0  0  0  0  0  0
    6.7582   -0.3469   19.1591 C   0  0  0  0  0  0  0  0  0  0  0  0
    7.8359    3.4233   22.0851 N   0  0  0  0  0  0  0  0  0  0  0  0
    9.5471    0.4316   23.0545 N   0  0  0  0  0  0  0  0  0  0  0  0
    6.0129    4.1852   23.1126 O   0  0  0  0  0  0  0  0  0  0  0  0
    5.7578    0.1513   17.0908 O   0  0  0  0  0  0  0  0  0  0  0  0
    9.5481    1.6436   21.1603 O   0  0  0  0  0  0  0  0  0  0  0  0
    6.5739    6.3919   22.1084 H   0  0  0  0  0  0  0  0  0  0  0  0
    8.1716    6.0542   22.1028 H   0  0  0  0  0  0  0  0  0  0  0  0
    7.2520    5.6734   20.8082 H   0  0  0  0  0  0  0  0  0  0  0  0
    7.5588   -0.6366   21.0401 H   0  0  0  0  0  0  0  0  0  0  0  0
    7.9642    2.3077   23.7577 H   0  0  0  0  0  0  0  0  0  0  0  0
    5.7890    1.8717   22.8989 H   0  0  0  0  0  0  0  0  0  0  0  0
    6.6278    0.4806   23.0663 H   0  0  0  0  0  0  0  0  0  0  0  0
    5.0088    2.5780   20.7383 H   0  0  0  0  0  0  0  0  0  0  0  0
    4.6567    2.0913   18.4371 H   0  0  0  0  0  0  0  0  0  0  0  0
    7.2304   -1.1225   18.7402 H   0  0  0  0  0  0  0  0  0  0  0  0
    8.4882    3.5760   21.3426 H   0  0  0  0  0  0  0  0  0  0  0  0
    9.2449    0.3829   24.0065 H   0  0  0  0  0  0  0  0  0  0  0  0
    6.5215    0.2755   16.4573 H   0  0  0  0  0  0  0  0  0  0  0  0
   10.3342   -1.8667   23.2982 C   0  0  0  0  0  0  0  0  0  0  0  0
   10.5117   -0.5560   22.5494 C   0  0  2  0  0  0  0  0  0  0  0  0
   11.9251   -0.0384   22.7620 C   0  0  0  0  0  0  0  0  0  0  0  0
   11.9060    1.2732   24.0091 S   0  0  0  0  0  0  0  0  0  0  0  0
   11.9102    2.7111   22.9082 C   0  0  0  0  0  0  0  0  0  0  0  0
   13.3349    3.0247   22.5043 C   0  0  0  0  0  0  0  0  0  0  0  0
   13.3450    4.5331   22.3592 C   0  0  0  0  0  0  0  0  0  0  0  0
   12.5430    4.9509   23.5772 C   0  0  0  0  0  0  0  0  0  0  0  0
   11.4015    3.9520   23.6201 C   0  0  0  0  0  0  0  0  0  0  0  0
   10.3550   -0.7059   21.5732 H   0  0  0  0  0  0  0  0  0  0  0  0
    9.4044   -2.2072   23.1583 H   0  0  0  0  0  0  0  0  0  0  0  0
   10.9904   -2.5384   22.9545 H   0  0  0  0  0  0  0  0  0  0  0  0
   10.4910   -1.7168   24.2744 H   0  0  0  0  0  0  0  0  0  0  0  0
   12.2799    0.3255   21.9008 H   0  0  0  0  0  0  0  0  0  0  0  0
   12.5106   -0.7866   23.0741 H   0  0  0  0  0  0  0  0  0  0  0  0
   11.3546    2.5264   22.0975 H   0  0  0  0  0  0  0  0  0  0  0  0
   13.5653    2.5818   21.6378 H   0  0  0  0  0  0  0  0  0  0  0  0
   13.9785    2.7303   23.2107 H   0  0  0  0  0  0  0  0  0  0  0  0
   12.9014    4.8228   21.5111 H   0  0  0  0  0  0  0  0  0  0  0  0
   14.2755    4.8981   22.3902 H   0  0  0  0  0  0  0  0  0  0  0  0
   12.1965    5.8832   23.4728 H   0  0  0  0  0  0  0  0  0  0  0  0
   13.0985    4.8927   24.4066 H   0  0  0  0  0  0  0  0  0  0  0  0
   11.1627    3.7368   24.5670 H   0  0  0  0  0  0  0  0  0  0  0  0
   10.5995    4.3193   23.1492 H   0  0  0  0  0  0  0  0  0  0  0  0
  1  4  1  0  0  0  0
  2  7  2  0  0  0  0
  2 11  1  0  0  0  0
  3  5  1  0  0  0  0
  3 13  1  0  0  0  0
  3 16  2  0  0  0  0
 15 29  1  0  0  0  0
  4 12  1  0  0  0  0
  4 14  2  0  0  0  0
  5  6  1  0  0  0  0
  5 12  1  0  0  0  0
  6  7  1  0  0  0  0
  7  8  1  0  0  0  0
  8  9  2  0  0  0  0
  9 10  1  0  0  0  0
 10 11  2  0  0  0  0
 10 15  1  0  0  0  0
  1 17  1  0  0  0  0
  1 18  1  0  0  0  0
  1 19  1  0  0  0  0
  2 20  1  0  0  0  0
  5 21  1  0  0  0  0
  6 22  1  0  0  0  0
  6 23  1  0  0  0  0
  8 24  1  0  0  0  0
  9 25  1  0  0  0  0
 11 26  1  0  0  0  0
 12 27  1  0  0  0  0
 13 28  1  0  0  0  0
 30 31  1  0  0  0  0
 38 53  1  0  0  0  0
 31 32  1  0  0  0  0
 32 33  1  0  0  0  0
 33 34  1  0  0  0  0
 34 35  1  0  0  0  0
 35 36  1  0  0  0  0
 36 37  1  0  0  0  0
 37 38  1  0  0  0  0
 38 34  1  0  0  0  0
 31 39  1  0  0  0  0
 30 40  1  0  0  0  0
 30 41  1  0  0  0  0
 30 42  1  0  0  0  0
 32 43  1  0  0  0  0
 32 44  1  0  0  0  0
 34 45  1  0  0  0  0
 35 46  1  0  0  0  0
 35 47  1  0  0  0  0
 36 48  1  0  0  0  0
 36 49  1  0  0  0  0
 37 50  1  0  0  0  0
 37 51  1  0  0  0  0
 38 52  1  0  0  0  0
 13 31  1  0  0  0  0
M  END
> <BIOSOLVEIT.HYDE_ESTIMATED_AFFINITY_LOWER_BOUNDARY [nM]>
595.646493

> <BIOSOLVEIT.HYDE_ESTIMATED_AFFINITY_UPPER_BOUNDARY [nM]>
59181.000805

> <BIOSOLVEIT.HYDE_LIGAND_EFFICIENCY range: ++, +, 0, -, -->
-

> <BIOSOLVEIT.HYDE_LIGAND_LIPOPHILIC_EFFICIENCY range: ++, +, 0, -, -->
-

> <BIOSOLVEIT.INTER_CLASH range: red, yellow, green>
green

> <BIOSOLVEIT.INTRA_CLASH range: red, yellow, green>
green

> <BIOSOLVEIT.LOGP>
2.6199

> <BIOSOLVEIT.MOLECULAR WEIGHT>
364.506

> <BIOSOLVEIT.MOLECULE_CHECKSUM>
LTI5LjgzMjQ7MS4xOTMz

> <BIOSOLVEIT.TORSION_QUALITY range: red, yellow, green, not rotatable>
yellow

> <BIOSOLVEIT.TPSA>
78.43

$$$$
LIG_A_1101_[R*]C1CCC=C1_2
anSeeSAR  04022010373D 1   1.00000     0.00000     0
SeeSAR 9.2 andre
 41 42  0  0  0  0            999 V2000
    7.2538    5.7170   21.8745 C   0  0  0  0  0  0  0  0  0  0  0  0
    7.4799    0.0154   20.6025 C   0  0  0  0  0  0  0  0  0  0  0  0
    9.4986    1.6072   22.4363 C   0  0  0  0  0  0  0  0  0  0  0  0
    7.1342    4.3897   22.5527 C   0  0  0  0  0  0  0  0  0  0  0  0
    8.1945    2.2198   22.9295 C   0  0  2  0  0  0  0  0  0  0  0  0
    7.0164    1.2486   22.7472 C   0  0  0  0  0  0  0  0  0  0  0  0
    6.7233    0.9443   21.2986 C   0  0  0  0  0  0  0  0  0  0  0  0
    5.7167    1.6086   20.6132 C   0  0  0  0  0  0  0  0  0  0  0  0
    5.4649    1.3521   19.2759 C   0  0  0  0  0  0  0  0  0  0  0  0
    6.2346    0.4179   18.6052 C   0  0  0  0  0  0  0  0  0  0  0  0
    7.2452   -0.2480   19.2663 C   0  0  0  0  0  0  0  0  0  0  0  0
    8.0128    3.4603   22.1890 N   0  0  0  0  0  0  0  0  0  0  0  0
   10.1119    0.7763   23.2714 N   0  0  0  0  0  0  0  0  0  0  0  0
    6.2569    4.1474   23.3741 O   0  0  0  0  0  0  0  0  0  0  0  0
    6.0358    0.1589   17.2917 O   0  0  0  0  0  0  0  0  0  0  0  0
    9.9208    1.8562   21.3082 O   0  0  0  0  0  0  0  0  0  0  0  0
    6.5480    6.3341   22.2227 H   0  0  0  0  0  0  0  0  0  0  0  0
    8.1566    6.1054   22.0589 H   0  0  0  0  0  0  0  0  0  0  0  0
    7.1366    5.5992   20.8884 H   0  0  0  0  0  0  0  0  0  0  0  0
    8.2112   -0.4748   21.0769 H   0  0  0  0  0  0  0  0  0  0  0  0
    8.2870    2.4354   23.9016 H   0  0  0  0  0  0  0  0  0  0  0  0
    6.2010    1.6555   23.1589 H   0  0  0  0  0  0  0  0  0  0  0  0
    7.2340    0.3920   23.2152 H   0  0  0  0  0  0  0  0  0  0  0  0
    5.1614    2.2866   21.0947 H   0  0  0  0  0  0  0  0  0  0  0  0
    4.7328    1.8381   18.7987 H   0  0  0  0  0  0  0  0  0  0  0  0
    7.8059   -0.9187   18.7808 H   0  0  0  0  0  0  0  0  0  0  0  0
    8.5709    3.6195   21.3747 H   0  0  0  0  0  0  0  0  0  0  0  0
    9.8321    0.7465   24.2310 H   0  0  0  0  0  0  0  0  0  0  0  0
    5.1117    0.1883   16.9106 H   0  0  0  0  0  0  0  0  0  0  0  0
   11.1961   -0.1003   22.8055 C   0  0  2  0  0  0  0  0  0  0  0  0
   11.5870   -1.1373   23.8369 C   0  0  0  0  0  0  0  0  0  0  0  0
   12.5321   -0.3380   24.7086 C   0  0  0  0  0  0  0  0  0  0  0  0
   13.2640    0.5146   23.6959 C   0  0  0  0  0  0  0  0  0  0  0  0
   12.5053    0.6489   22.6248 C   0  0  0  0  0  0  0  0  0  0  0  0
   10.9341   -0.5471   21.9501 H   0  0  0  0  0  0  0  0  0  0  0  0
   12.0482   -1.9183   23.4156 H   0  0  0  0  0  0  0  0  0  0  0  0
   10.7934   -1.4581   24.3540 H   0  0  0  0  0  0  0  0  0  0  0  0
   13.1635   -0.9366   25.2015 H   0  0  0  0  0  0  0  0  0  0  0  0
   12.0300    0.2278   25.3627 H   0  0  0  0  0  0  0  0  0  0  0  0
   14.1737    0.9115   23.8182 H   0  0  0  0  0  0  0  0  0  0  0  0
   12.7565    1.1702   21.8093 H   0  0  0  0  0  0  0  0  0  0  0  0
  1  4  1  0  0  0  0
  2  7  2  0  0  0  0
  2 11  1  0  0  0  0
  3  5  1  0  0  0  0
  3 13  1  0  0  0  0
  3 16  2  0  0  0  0
 15 29  1  0  0  0  0
  4 12  1  0  0  0  0
  4 14  2  0  0  0  0
  5  6  1  0  0  0  0
  5 12  1  0  0  0  0
  6  7  1  0  0  0  0
  7  8  1  0  0  0  0
  8  9  2  0  0  0  0
  9 10  1  0  0  0  0
 10 11  2  0  0  0  0
 10 15  1  0  0  0  0
  1 17  1  0  0  0  0
  1 18  1  0  0  0  0
  1 19  1  0  0  0  0
  2 20  1  0  0  0  0
  5 21  1  0  0  0  0
  6 22  1  0  0  0  0
  6 23  1  0  0  0  0
  8 24  1  0  0  0  0
  9 25  1  0  0  0  0
 11 26  1  0  0  0  0
 12 27  1  0  0  0  0
 13 28  1  0  0  0  0
 34 41  1  0  0  0  0
 30 31  1  0  0  0  0
 31 32  1  0  0  0  0
 32 33  1  0  0  0  0
 33 34  2  0  0  0  0
 34 30  1  0  0  0  0
 30 35  1  0  0  0  0
 31 36  1  0  0  0  0
 31 37  1  0  0  0  0
 32 38  1  0  0  0  0
 32 39  1  0  0  0  0
 33 40  1  0  0  0  0
 13 30  1  0  0  0  0
M  END
> <BIOSOLVEIT.HYDE_ESTIMATED_AFFINITY_LOWER_BOUNDARY [nM]>
734.354663

> <BIOSOLVEIT.HYDE_ESTIMATED_AFFINITY_UPPER_BOUNDARY [nM]>
72962.477597

> <BIOSOLVEIT.HYDE_LIGAND_EFFICIENCY range: ++, +, 0, -, -->
0

> <BIOSOLVEIT.HYDE_LIGAND_LIPOPHILIC_EFFICIENCY range: ++, +, 0, -, -->
0

> <BIOSOLVEIT.INTER_CLASH range: red, yellow, green>
green

> <BIOSOLVEIT.INTRA_CLASH range: red, yellow, green>
green

> <BIOSOLVEIT.LOGP>
1.2742

> <BIOSOLVEIT.MOLECULAR WEIGHT>
288.345

> <BIOSOLVEIT.MOLECULE_CHECKSUM>
LTI5LjMxMzU7MS4zOTU4OA==

> <BIOSOLVEIT.TORSION_QUALITY range: red, yellow, green, not rotatable>
green

> <BIOSOLVEIT.TPSA>
78.43

$$$$
LIG_A_1101_C[C@@H]([R*])[NH2+][C@@H]1COC[C@H]1O_2
anSeeSAR  04022010373D 1   1.00000     0.00000     0
SeeSAR 9.2 andre
 51 52  0  0  0  0            999 V2000
    7.4403    5.8620   21.6823 C   0  0  0  0  0  0  0  0  0  0  0  0
    6.5017   -0.0797   20.6210 C   0  0  0  0  0  0  0  0  0  0  0  0
    8.6947    1.3292   22.2722 C   0  0  0  0  0  0  0  0  0  0  0  0
    6.9721    4.5653   22.2614 C   0  0  0  0  0  0  0  0  0  0  0  0
    7.5646    2.2410   22.7316 C   0  0  2  0  0  0  0  0  0  0  0  0
    6.1901    1.6056   22.4645 C   0  0  0  0  0  0  0  0  0  0  0  0
    6.0194    1.1514   21.0356 C   0  0  0  0  0  0  0  0  0  0  0  0
    5.4106    1.9636   20.0902 C   0  0  0  0  0  0  0  0  0  0  0  0
    5.2789    1.5611   18.7718 C   0  0  0  0  0  0  0  0  0  0  0  0
    5.7678    0.3256   18.3851 C   0  0  0  0  0  0  0  0  0  0  0  0
    6.3833   -0.4938   19.3079 C   0  0  0  0  0  0  0  0  0  0  0  0
    7.7396    3.5045   22.0295 N   0  0  0  0  0  0  0  0  0  0  0  0
    8.8730    0.2142   22.9714 N   0  0  0  0  0  0  0  0  0  0  0  0
    5.9223    4.4650   22.8867 O   0  0  0  0  0  0  0  0  0  0  0  0
    5.6810   -0.0918   17.1006 O   0  0  0  0  0  0  0  0  0  0  0  0
    9.3676    1.6149   21.2831 O   0  0  0  0  0  0  0  0  0  0  0  0
    6.7914    6.5857   21.9173 H   0  0  0  0  0  0  0  0  0  0  0  0
    8.3405    6.0877   22.0547 H   0  0  0  0  0  0  0  0  0  0  0  0
    7.5021    5.7798   20.6876 H   0  0  0  0  0  0  0  0  0  0  0  0
    6.9446   -0.6811   21.2859 H   0  0  0  0  0  0  0  0  0  0  0  0
    7.6597    2.4022   23.7139 H   0  0  0  0  0  0  0  0  0  0  0  0
    5.4814    2.2801   22.6715 H   0  0  0  0  0  0  0  0  0  0  0  0
    6.0825    0.8138   23.0658 H   0  0  0  0  0  0  0  0  0  0  0  0
    5.0595    2.8583   20.3664 H   0  0  0  0  0  0  0  0  0  0  0  0
    4.8341    2.1584   18.1045 H   0  0  0  0  0  0  0  0  0  0  0  0
    6.7424   -1.3841   19.0280 H   0  0  0  0  0  0  0  0  0  0  0  0
    8.4658    3.5774   21.3459 H   0  0  0  0  0  0  0  0  0  0  0  0
    8.4290    0.1146   23.8619 H   0  0  0  0  0  0  0  0  0  0  0  0
    6.4326    0.0859   16.4653 H   0  0  0  0  0  0  0  0  0  0  0  0
    8.8363   -2.0607   22.0855 C   0  0  0  0  0  0  0  0  0  0  0  0
    9.7136   -0.8756   22.4551 C   0  0  2  0  0  0  0  0  0  0  0  0
   10.6771   -1.2827   23.4880 N   0  3  0  0  0  0  0  0  0  0  0  0
   11.9757   -0.6425   23.2269 C   0  0  2  0  0  0  0  0  0  0  0  0
   12.4196   -1.0514   21.8419 C   0  0  0  0  0  0  0  0  0  0  0  0
   13.8273   -1.1520   21.9269 O   0  0  0  0  0  0  0  0  0  0  0  0
   14.0131   -1.8644   23.1396 C   0  0  0  0  0  0  0  0  0  0  0  0
   13.0750   -1.1900   24.1156 C   0  0  1  0  0  0  0  0  0  0  0  0
   13.6928   -0.1220   24.8195 O   0  0  0  0  0  0  0  0  0  0  0  0
   10.2071   -0.5606   21.6445 H   0  0  0  0  0  0  0  0  0  0  0  0
   10.7858   -2.2766   23.4695 H   0  0  0  0  0  0  0  0  0  0  0  0
   10.3413   -1.0008   24.3868 H   0  0  0  0  0  0  0  0  0  0  0  0
   11.9100    0.3523   23.3057 H   0  0  0  0  0  0  0  0  0  0  0  0
   12.7016   -1.8595   24.7578 H   0  0  0  0  0  0  0  0  0  0  0  0
    8.1808   -1.7838   21.3829 H   0  0  0  0  0  0  0  0  0  0  0  0
    9.4081   -2.8021   21.7344 H   0  0  0  0  0  0  0  0  0  0  0  0
    8.3427   -2.3757   22.8962 H   0  0  0  0  0  0  0  0  0  0  0  0
   12.1561   -0.3598   21.1693 H   0  0  0  0  0  0  0  0  0  0  0  0
   12.0184   -1.9318   21.5893 H   0  0  0  0  0  0  0  0  0  0  0  0
   14.9605   -1.7923   23.4513 H   0  0  0  0  0  0  0  0  0  0  0  0
   13.7723   -2.8281   23.0249 H   0  0  0  0  0  0  0  0  0  0  0  0
   13.0712    0.2148   25.5267 H   0  0  0  0  0  0  0  0  0  0  0  0
  1  4  1  0  0  0  0
  2  7  2  0  0  0  0
  2 11  1  0  0  0  0
  3  5  1  0  0  0  0
  3 13  1  0  0  0  0
  3 16  2  0  0  0  0
 15 29  1  0  0  0  0
  4 12  1  0  0  0  0
  4 14  2  0  0  0  0
  5  6  1  0  0  0  0
  5 12  1  0  0  0  0
  6  7  1  0  0  0  0
  7  8  1  0  0  0  0
  8  9  2  0  0  0  0
  9 10  1  0  0  0  0
 10 11  2  0  0  0  0
 10 15  1  0  0  0  0
  1 17  1  0  0  0  0
  1 18  1  0  0  0  0
  1 19  1  0  0  0  0
  2 20  1  0  0  0  0
  5 21  1  0  0  0  0
  6 22  1  0  0  0  0
  6 23  1  0  0  0  0
  8 24  1  0  0  0  0
  9 25  1  0  0  0  0
 11 26  1  0  0  0  0
 12 27  1  0  0  0  0
 13 28  1  0  0  0  0
 30 31  1  0  0  0  0
 38 51  1  0  0  0  0
 31 32  1  0  0  0  0
 32 33  1  0  0  0  0
 33 34  1  0  0  0  0
 34 35  1  0  0  0  0
 35 36  1  0  0  0  0
 36 37  1  0  0  0  0
 37 33  1  0  0  0  0
 37 38  1  0  0  0  0
 31 39  1  0  0  0  0
 32 40  1  0  0  0  0
 32 41  1  0  0  0  0
 33 42  1  0  0  0  0
 37 43  1  0  0  0  0
 30 44  1  0  0  0  0
 30 45  1  0  0  0  0
 30 46  1  0  0  0  0
 34 47  1  0  0  0  0
 34 48  1  0  0  0  0
 36 49  1  0  0  0  0
 36 50  1  0  0  0  0
 13 31  1  0  0  0  0
M  CHG  1  32   1
M  END
> <BIOSOLVEIT.HYDE_ESTIMATED_AFFINITY_LOWER_BOUNDARY [nM]>
753.349246

> <BIOSOLVEIT.HYDE_ESTIMATED_AFFINITY_UPPER_BOUNDARY [nM]>
74849.701721

> <BIOSOLVEIT.HYDE_LIGAND_EFFICIENCY range: ++, +, 0, -, -->
-

> <BIOSOLVEIT.HYDE_LIGAND_LIPOPHILIC_EFFICIENCY range: ++, +, 0, -, -->
++

> <BIOSOLVEIT.INTER_CLASH range: red, yellow, green>
yellow

> <BIOSOLVEIT.INTRA_CLASH range: red, yellow, green>
green

> <BIOSOLVEIT.LOGP>
-1.7753

> <BIOSOLVEIT.MOLECULAR WEIGHT>
352.408

> <BIOSOLVEIT.MOLECULE_CHECKSUM>
LTI5LjI1MDI7MS4xNzAwMQ==

> <BIOSOLVEIT.TORSION_QUALITY range: red, yellow, green, not rotatable>
green

> <BIOSOLVEIT.TPSA>
124.5

$$$$
LIG_A_1101_C[C@@H]([R*])CS[C@H]1CCO[C@@H]1C_1
anSeeSAR  04022010373D 1   1.00000     0.00000     0
SeeSAR 9.2 andre
 52 53  0  0  0  0            999 V2000
    8.2356    3.6112   25.0041 C   0  0  0  0  0  0  0  0  0  0  0  0
    6.3429   -0.6169   20.0831 C   0  0  0  0  0  0  0  0  0  0  0  0
    8.5883    0.3058   21.8891 C   0  0  0  0  0  0  0  0  0  0  0  0
    7.8294    2.2016   24.7143 C   0  0  0  0  0  0  0  0  0  0  0  0
    7.5408    0.5076   22.9760 C   0  0  2  0  0  0  0  0  0  0  0  0
    6.1277    0.1974   22.4551 C   0  0  0  0  0  0  0  0  0  0  0  0
    5.9938    0.3934   20.9649 C   0  0  0  0  0  0  0  0  0  0  0  0
    5.5544    1.5973   20.4340 C   0  0  0  0  0  0  0  0  0  0  0  0
    5.4584    1.7893   19.0660 C   0  0  0  0  0  0  0  0  0  0  0  0
    5.8117    0.7628   18.2079 C   0  0  0  0  0  0  0  0  0  0  0  0
    6.2582   -0.4393   18.7152 C   0  0  0  0  0  0  0  0  0  0  0  0
    7.6762    1.8836   23.4323 N   0  0  0  0  0  0  0  0  0  0  0  0
    7.6116    1.3841   25.6017 O   0  0  0  0  0  0  0  0  0  0  0  0
    5.7562    0.9214   16.8649 O   0  0  0  0  0  0  0  0  0  0  0  0
    8.9447    1.2454   21.1802 O   0  0  0  0  0  0  0  0  0  0  0  0
    8.3206    3.7372   25.9925 H   0  0  0  0  0  0  0  0  0  0  0  0
    9.1147    3.8014   24.5670 H   0  0  0  0  0  0  0  0  0  0  0  0
    7.5431    4.2379   24.6465 H   0  0  0  0  0  0  0  0  0  0  0  0
    6.6627   -1.4929   20.4442 H   0  0  0  0  0  0  0  0  0  0  0  0
    7.7452   -0.1063   23.7384 H   0  0  0  0  0  0  0  0  0  0  0  0
    5.4781    0.8022   22.9159 H   0  0  0  0  0  0  0  0  0  0  0  0
    5.9094   -0.7539   22.6725 H   0  0  0  0  0  0  0  0  0  0  0  0
    5.3017    2.3418   21.0519 H   0  0  0  0  0  0  0  0  0  0  0  0
    5.1364    2.6629   18.7011 H   0  0  0  0  0  0  0  0  0  0  0  0
    6.5197   -1.1795   18.0958 H   0  0  0  0  0  0  0  0  0  0  0  0
    7.6531    2.6187   22.7547 H   0  0  0  0  0  0  0  0  0  0  0  0
    5.4881    1.8029   16.4762 H   0  0  0  0  0  0  0  0  0  0  0  0
    8.2359   -2.0633   22.4986 C   0  0  0  0  0  0  0  0  0  0  0  0
    9.1111   -1.0970   21.7169 C   0  0  2  0  0  0  0  0  0  0  0  0
   10.5379   -1.1732   22.2353 C   0  0  0  0  0  0  0  0  0  0  0  0
   10.5517   -0.8430   24.0149 S   0  0  0  0  0  0  0  0  0  0  0  0
   12.0577    0.1554   24.1058 C   0  0  1  0  0  0  0  0  0  0  0  0
   13.2432   -0.5462   23.4708 C   0  0  0  0  0  0  0  0  0  0  0  0
   14.0214    0.5650   22.7964 C   0  0  0  0  0  0  0  0  0  0  0  0
   13.3143    1.7632   23.0513 O   0  0  0  0  0  0  0  0  0  0  0  0
   11.9666    1.3797   23.2290 C   0  0  2  0  0  0  0  0  0  0  0  0
   11.1574    2.4725   23.9062 C   0  0  0  0  0  0  0  0  0  0  0  0
    9.0950   -1.3422   20.7476 H   0  0  0  0  0  0  0  0  0  0  0  0
   12.2596    0.4094   25.0517 H   0  0  0  0  0  0  0  0  0  0  0  0
   11.5567    1.1430   22.3482 H   0  0  0  0  0  0  0  0  0  0  0  0
    7.2972   -2.0132   22.1576 H   0  0  0  0  0  0  0  0  0  0  0  0
    8.5828   -2.9942   22.3844 H   0  0  0  0  0  0  0  0  0  0  0  0
    8.2520   -1.8181   23.4679 H   0  0  0  0  0  0  0  0  0  0  0  0
   11.1000   -0.4924   21.7655 H   0  0  0  0  0  0  0  0  0  0  0  0
   10.9069   -2.0865   22.0628 H   0  0  0  0  0  0  0  0  0  0  0  0
   12.9369   -1.2215   22.7998 H   0  0  0  0  0  0  0  0  0  0  0  0
   13.8017   -0.9975   24.1667 H   0  0  0  0  0  0  0  0  0  0  0  0
   14.0767    0.3994   21.8117 H   0  0  0  0  0  0  0  0  0  0  0  0
   14.9442    0.6208   23.1774 H   0  0  0  0  0  0  0  0  0  0  0  0
   11.5500    2.6699   24.8045 H   0  0  0  0  0  0  0  0  0  0  0  0
   11.1782    3.2994   23.3444 H   0  0  0  0  0  0  0  0  0  0  0  0
   10.2114    2.1675   24.0156 H   0  0  0  0  0  0  0  0  0  0  0  0
  1  4  1  0  0  0  0
  2  7  2  0  0  0  0
  2 11  1  0  0  0  0
  3  5  1  0  0  0  0
 14 27  1  0  0  0  0
  3 15  2  0  0  0  0
  4 12  1  0  0  0  0
  4 13  2  0  0  0  0
  5  6  1  0  0  0  0
  5 12  1  0  0  0  0
  6  7  1  0  0  0  0
  7  8  1  0  0  0  0
  8  9  2  0  0  0  0
  9 10  1  0  0  0  0
 10 11  2  0  0  0  0
 10 14  1  0  0  0  0
  1 16  1  0  0  0  0
  1 17  1  0  0  0  0
  1 18  1  0  0  0  0
  2 19  1  0  0  0  0
  5 20  1  0  0  0  0
  6 21  1  0  0  0  0
  6 22  1  0  0  0  0
  8 23  1  0  0  0  0
  9 24  1  0  0  0  0
 11 25  1  0  0  0  0
 12 26  1  0  0  0  0
 28 29  1  0  0  0  0
 37 52  1  0  0  0  0
 29 30  1  0  0  0  0
 30 31  1  0  0  0  0
 31 32  1  0  0  0  0
 32 33  1  0  0  0  0
 33 34  1  0  0  0  0
 34 35  1  0  0  0  0
 35 36  1  0  0  0  0
 36 32  1  0  0  0  0
 36 37  1  0  0  0  0
 29 38  1  0  0  0  0
 32 39  1  0  0  0  0
 36 40  1  0  0  0  0
 28 41  1  0  0  0  0
 28 42  1  0  0  0  0
 28 43  1  0  0  0  0
 30 44  1  0  0  0  0
 30 45  1  0  0  0  0
 33 46  1  0  0  0  0
 33 47  1  0  0  0  0
 34 48  1  0  0  0  0
 34 49  1  0  0  0  0
 37 50  1  0  0  0  0
 37 51  1  0  0  0  0
  3 29  1  0  0  0  0
M  END
> <BIOSOLVEIT.HYDE_ESTIMATED_AFFINITY_LOWER_BOUNDARY [nM]>
840.610485

> <BIOSOLVEIT.HYDE_ESTIMATED_AFFINITY_UPPER_BOUNDARY [nM]>
83519.621804

> <BIOSOLVEIT.HYDE_LIGAND_EFFICIENCY range: ++, +, 0, -, -->
-

> <BIOSOLVEIT.HYDE_LIGAND_LIPOPHILIC_EFFICIENCY range: ++, +, 0, -, -->
-

> <BIOSOLVEIT.INTER_CLASH range: red, yellow, green>
green

> <BIOSOLVEIT.INTRA_CLASH range: red, yellow, green>
yellow

> <BIOSOLVEIT.LOGP>
2.5552

> <BIOSOLVEIT.MOLECULAR WEIGHT>
365.49

> <BIOSOLVEIT.MOLECULE_CHECKSUM>
LTI4Ljk3ODU7MS4xNTkxNA==

> <BIOSOLVEIT.TORSION_QUALITY range: red, yellow, green, not rotatable>
green

> <BIOSOLVEIT.TPSA>
75.63

$$$$
LIG_A_1101_CC(C)[R*]_2
anSeeSAR  04022010373D 1   1.00000     0.00000     0
SeeSAR 9.2 andre
 39 39  0  0  0  0            999 V2000
    7.2179    5.6184   21.7507 C   0  0  0  0  0  0  0  0  0  0  0  0
    7.3642    0.0905   20.3689 C   0  0  0  0  0  0  0  0  0  0  0  0
    9.3894    1.4738   22.3907 C   0  0  0  0  0  0  0  0  0  0  0  0
    7.0485    4.2838   22.4036 C   0  0  0  0  0  0  0  0  0  0  0  0
    8.0782    2.1092   22.8341 C   0  0  2  0  0  0  0  0  0  0  0  0
    6.8899    1.1628   22.5962 C   0  0  0  0  0  0  0  0  0  0  0  0
    6.5909    0.9501   21.1325 C   0  0  0  0  0  0  0  0  0  0  0  0
    5.5613    1.6330   20.5017 C   0  0  0  0  0  0  0  0  0  0  0  0
    5.3035    1.4614   19.1520 C   0  0  0  0  0  0  0  0  0  0  0  0
    6.0903    0.5952   18.4133 C   0  0  0  0  0  0  0  0  0  0  0  0
    7.1237   -0.0876   19.0198 C   0  0  0  0  0  0  0  0  0  0  0  0
    7.9518    3.3578   22.0959 N   0  0  0  0  0  0  0  0  0  0  0  0
    9.9210    0.5816   23.2185 N   0  0  0  0  0  0  0  0  0  0  0  0
    6.1127    4.0330   23.1549 O   0  0  0  0  0  0  0  0  0  0  0  0
    5.8857    0.4208   17.0869 O   0  0  0  0  0  0  0  0  0  0  0  0
    9.8895    1.7616   21.3045 O   0  0  0  0  0  0  0  0  0  0  0  0
    6.4882    6.2320   22.0523 H   0  0  0  0  0  0  0  0  0  0  0  0
    8.1045    6.0041   22.0058 H   0  0  0  0  0  0  0  0  0  0  0  0
    7.1742    5.5115   20.7574 H   0  0  0  0  0  0  0  0  0  0  0  0
    8.1121   -0.4116   20.8032 H   0  0  0  0  0  0  0  0  0  0  0  0
    8.1346    2.3165   23.8107 H   0  0  0  0  0  0  0  0  0  0  0  0
    6.0795    1.5523   23.0339 H   0  0  0  0  0  0  0  0  0  0  0  0
    7.0995    0.2773   23.0108 H   0  0  0  0  0  0  0  0  0  0  0  0
    4.9935    2.2621   21.0325 H   0  0  0  0  0  0  0  0  0  0  0  0
    4.5548    1.9595   18.7147 H   0  0  0  0  0  0  0  0  0  0  0  0
    7.6966   -0.7090   18.4854 H   0  0  0  0  0  0  0  0  0  0  0  0
    8.5688    3.5256   21.3270 H   0  0  0  0  0  0  0  0  0  0  0  0
    9.5809    0.5156   24.1566 H   0  0  0  0  0  0  0  0  0  0  0  0
    6.6525    0.4928   16.4490 H   0  0  0  0  0  0  0  0  0  0  0  0
   10.4914   -1.7413   22.7284 C   0  0  0  0  0  0  0  0  0  0  0  0
   11.0023   -0.3104   22.7756 C   0  0  0  0  0  0  0  0  0  0  0  0
   12.1653   -0.2196   23.7502 C   0  0  0  0  0  0  0  0  0  0  0  0
    9.7263   -1.8010   22.0873 H   0  0  0  0  0  0  0  0  0  0  0  0
   11.2269   -2.3481   22.4271 H   0  0  0  0  0  0  0  0  0  0  0  0
   10.1848   -2.0160   23.6397 H   0  0  0  0  0  0  0  0  0  0  0  0
   11.3088   -0.0357   21.8643 H   0  0  0  0  0  0  0  0  0  0  0  0
   11.8587   -0.4943   24.6615 H   0  0  0  0  0  0  0  0  0  0  0  0
   12.9008   -0.8264   23.4489 H   0  0  0  0  0  0  0  0  0  0  0  0
   12.5014    0.7217   23.7812 H   0  0  0  0  0  0  0  0  0  0  0  0
  1  4  1  0  0  0  0
  2  7  2  0  0  0  0
  2 11  1  0  0  0  0
  3  5  1  0  0  0  0
  3 13  1  0  0  0  0
  3 16  2  0  0  0  0
 15 29  1  0  0  0  0
  4 12  1  0  0  0  0
  4 14  2  0  0  0  0
  5  6  1  0  0  0  0
  5 12  1  0  0  0  0
  6  7  1  0  0  0  0
  7  8  1  0  0  0  0
  8  9  2  0  0  0  0
  9 10  1  0  0  0  0
 10 11  2  0  0  0  0
 10 15  1  0  0  0  0
  1 17  1  0  0  0  0
  1 18  1  0  0  0  0
  1 19  1  0  0  0  0
  2 20  1  0  0  0  0
  5 21  1  0  0  0  0
  6 22  1  0  0  0  0
  6 23  1  0  0  0  0
  8 24  1  0  0  0  0
  9 25  1  0  0  0  0
 11 26  1  0  0  0  0
 12 27  1  0  0  0  0
 13 28  1  0  0  0  0
 30 31  1  0  0  0  0
 31 32  1  0  0  0  0
 32 39  1  0  0  0  0
 30 33  1  0  0  0  0
 30 34  1  0  0  0  0
 30 35  1  0  0  0  0
 31 36  1  0  0  0  0
 32 37  1  0  0  0  0
 32 38  1  0  0  0  0
 13 31  1  0  0  0  0
M  END
> <BIOSOLVEIT.HYDE_ESTIMATED_AFFINITY_LOWER_BOUNDARY [nM]>
985.418285

> <BIOSOLVEIT.HYDE_ESTIMATED_AFFINITY_UPPER_BOUNDARY [nM]>
97907.132905

> <BIOSOLVEIT.HYDE_LIGAND_EFFICIENCY range: ++, +, 0, -, -->
0

> <BIOSOLVEIT.HYDE_LIGAND_LIPOPHILIC_EFFICIENCY range: ++, +, 0, -, -->
0

> <BIOSOLVEIT.INTER_CLASH range: red, yellow, green>
green

> <BIOSOLVEIT.INTRA_CLASH range: red, yellow, green>
green

> <BIOSOLVEIT.LOGP>
0.964

> <BIOSOLVEIT.MOLECULAR WEIGHT>
264.323

> <BIOSOLVEIT.MOLECULE_CHECKSUM>
LTI4LjU4NDU7MS41MDQ0NQ==

> <BIOSOLVEIT.TORSION_QUALITY range: red, yellow, green, not rotatable>
green

> <BIOSOLVEIT.TPSA>
78.43

$$$$
LIG_A_1101_C[C@@H]([R*])CSC1CCCC1_1
anSeeSAR  04022010373D 1   1.00000     0.00000     0
SeeSAR 9.2 andre
 51 52  0  0  0  0            999 V2000
    8.1071    4.1034   24.5432 C   0  0  0  0  0  0  0  0  0  0  0  0
    6.7102   -0.5870   20.1181 C   0  0  0  0  0  0  0  0  0  0  0  0
    8.8739    0.4179   22.0199 C   0  0  0  0  0  0  0  0  0  0  0  0
    7.8730    2.6278   24.4818 C   0  0  0  0  0  0  0  0  0  0  0  0
    7.7582    0.6676   23.0260 C   0  0  2  0  0  0  0  0  0  0  0  0
    6.4114    0.1333   22.5113 C   0  0  0  0  0  0  0  0  0  0  0  0
    6.2250    0.3386   21.0280 C   0  0  0  0  0  0  0  0  0  0  0  0
    5.5982    1.4722   20.5315 C   0  0  0  0  0  0  0  0  0  0  0  0
    5.4520    1.6768   19.1698 C   0  0  0  0  0  0  0  0  0  0  0  0
    5.9442    0.7353   18.2831 C   0  0  0  0  0  0  0  0  0  0  0  0
    6.5773   -0.3949   18.7560 C   0  0  0  0  0  0  0  0  0  0  0  0
    7.7316    2.1031   23.2681 N   0  0  0  0  0  0  0  0  0  0  0  0
    7.7787    1.9342   25.4883 O   0  0  0  0  0  0  0  0  0  0  0  0
    5.8434    0.9125   16.9451 O   0  0  0  0  0  0  0  0  0  0  0  0
    9.2063    1.2933   21.2227 O   0  0  0  0  0  0  0  0  0  0  0  0
    8.1981    4.3870   25.4978 H   0  0  0  0  0  0  0  0  0  0  0  0
    8.9456    4.3289   24.0471 H   0  0  0  0  0  0  0  0  0  0  0  0
    7.3341    4.5812   24.1258 H   0  0  0  0  0  0  0  0  0  0  0  0
    7.1660   -1.4112   20.4540 H   0  0  0  0  0  0  0  0  0  0  0  0
    7.9846    0.2008   23.8808 H   0  0  0  0  0  0  0  0  0  0  0  0
    5.6748    0.6074   22.9938 H   0  0  0  0  0  0  0  0  0  0  0  0
    6.3613   -0.8462   22.7064 H   0  0  0  0  0  0  0  0  0  0  0  0
    5.2447    2.1557   21.1701 H   0  0  0  0  0  0  0  0  0  0  0  0
    4.9943    2.4984   18.8299 H   0  0  0  0  0  0  0  0  0  0  0  0
    6.9389   -1.0728   18.1158 H   0  0  0  0  0  0  0  0  0  0  0  0
    7.6019    2.7188   22.4909 H   0  0  0  0  0  0  0  0  0  0  0  0
    5.5077    1.7807   16.5796 H   0  0  0  0  0  0  0  0  0  0  0  0
    9.0528   -1.6947   23.2901 C   0  0  0  0  0  0  0  0  0  0  0  0
    9.4955   -0.9548   22.0384 C   0  0  2  0  0  0  0  0  0  0  0  0
   11.0100   -0.8253   22.0354 C   0  0  0  0  0  0  0  0  0  0  0  0
   11.6317   -0.9754   23.7286 S   0  0  0  0  0  0  0  0  0  0  0  0
   12.2613    0.7082   23.9495 C   0  0  0  0  0  0  0  0  0  0  0  0
   11.1342    1.7141   24.1102 C   0  0  0  0  0  0  0  0  0  0  0  0
   11.5821    2.9919   23.4167 C   0  0  0  0  0  0  0  0  0  0  0  0
   12.9760    2.7171   22.8958 C   0  0  0  0  0  0  0  0  0  0  0  0
   12.9792    1.2131   22.7106 C   0  0  0  0  0  0  0  0  0  0  0  0
    9.2029   -1.4642   21.2291 H   0  0  0  0  0  0  0  0  0  0  0  0
    8.0565   -1.7799   23.2922 H   0  0  0  0  0  0  0  0  0  0  0  0
    9.4653   -2.6056   23.3024 H   0  0  0  0  0  0  0  0  0  0  0  0
    9.3455   -1.1854   24.0994 H   0  0  0  0  0  0  0  0  0  0  0  0
   11.2675    0.0665   21.6635 H   0  0  0  0  0  0  0  0  0  0  0  0
   11.4053   -1.5491   21.4698 H   0  0  0  0  0  0  0  0  0  0  0  0
   12.8718    0.7462   24.7406 H   0  0  0  0  0  0  0  0  0  0  0  0
   10.9656    1.8900   25.0801 H   0  0  0  0  0  0  0  0  0  0  0  0
   10.2990    1.3661   23.6844 H   0  0  0  0  0  0  0  0  0  0  0  0
   11.5973    3.7525   24.0657 H   0  0  0  0  0  0  0  0  0  0  0  0
   10.9655    3.2112   22.6605 H   0  0  0  0  0  0  0  0  0  0  0  0
   13.6696    2.9993   23.5585 H   0  0  0  0  0  0  0  0  0  0  0  0
   13.1343    3.1867   22.0272 H   0  0  0  0  0  0  0  0  0  0  0  0
   12.4867    0.9532   21.8801 H   0  0  0  0  0  0  0  0  0  0  0  0
   13.9135    0.8592   22.6686 H   0  0  0  0  0  0  0  0  0  0  0  0
  1  4  1  0  0  0  0
  2  7  2  0  0  0  0
  2 11  1  0  0  0  0
  3  5  1  0  0  0  0
 14 27  1  0  0  0  0
  3 15  2  0  0  0  0
  4 12  1  0  0  0  0
  4 13  2  0  0  0  0
  5  6  1  0  0  0  0
  5 12  1  0  0  0  0
  6  7  1  0  0  0  0
  7  8  1  0  0  0  0
  8  9  2  0  0  0  0
  9 10  1  0  0  0  0
 10 11  2  0  0  0  0
 10 14  1  0  0  0  0
  1 16  1  0  0  0  0
  1 17  1  0  0  0  0
  1 18  1  0  0  0  0
  2 19  1  0  0  0  0
  5 20  1  0  0  0  0
  6 21  1  0  0  0  0
  6 22  1  0  0  0  0
  8 23  1  0  0  0  0
  9 24  1  0  0  0  0
 11 25  1  0  0  0  0
 12 26  1  0  0  0  0
 28 29  1  0  0  0  0
 36 51  1  0  0  0  0
 29 30  1  0  0  0  0
 30 31  1  0  0  0  0
 31 32  1  0  0  0  0
 32 33  1  0  0  0  0
 33 34  1  0  0  0  0
 34 35  1  0  0  0  0
 35 36  1  0  0  0  0
 36 32  1  0  0  0  0
 29 37  1  0  0  0  0
 28 38  1  0  0  0  0
 28 39  1  0  0  0  0
 28 40  1  0  0  0  0
 30 41  1  0  0  0  0
 30 42  1  0  0  0  0
 32 43  1  0  0  0  0
 33 44  1  0  0  0  0
 33 45  1  0  0  0  0
 34 46  1  0  0  0  0
 34 47  1  0  0  0  0
 35 48  1  0  0  0  0
 35 49  1  0  0  0  0
 36 50  1  0  0  0  0
  3 29  1  0  0  0  0
M  END
> <BIOSOLVEIT.HYDE_ESTIMATED_AFFINITY_LOWER_BOUNDARY [nM]>
1484.243372

> <BIOSOLVEIT.HYDE_ESTIMATED_AFFINITY_UPPER_BOUNDARY [nM]>
147468.354593

> <BIOSOLVEIT.HYDE_LIGAND_EFFICIENCY range: ++, +, 0, -, -->
-

> <BIOSOLVEIT.HYDE_LIGAND_LIPOPHILIC_EFFICIENCY range: ++, +, 0, -, -->
--

> <BIOSOLVEIT.INTER_CLASH range: red, yellow, green>
green

> <BIOSOLVEIT.INTRA_CLASH range: red, yellow, green>
yellow

> <BIOSOLVEIT.LOGP>
3.3204

> <BIOSOLVEIT.MOLECULAR WEIGHT>
349.491

> <BIOSOLVEIT.MOLECULE_CHECKSUM>
LTI3LjU2OTE7MS4xNDg3MQ==

> <BIOSOLVEIT.TORSION_QUALITY range: red, yellow, green, not rotatable>
yellow

> <BIOSOLVEIT.TPSA>
66.4

$$$$
LIG_A_1101_CCC[R*]_2
anSeeSAR  04022010373D 1   1.00000     0.00000     0
SeeSAR 9.2 andre
 39 39  0  0  0  0            999 V2000
    7.2510    5.6590   21.8318 C   0  0  0  0  0  0  0  0  0  0  0  0
    7.5445    0.0249   20.5745 C   0  0  0  0  0  0  0  0  0  0  0  0
    9.5644    1.6025   22.4806 C   0  0  0  0  0  0  0  0  0  0  0  0
    7.1477    4.3400   22.5287 C   0  0  0  0  0  0  0  0  0  0  0  0
    8.2394    2.1929   22.9443 C   0  0  2  0  0  0  0  0  0  0  0  0
    7.0857    1.1939   22.7559 C   0  0  0  0  0  0  0  0  0  0  0  0
    6.7772    0.9182   21.3048 C   0  0  0  0  0  0  0  0  0  0  0  0
    5.7446    1.5747   20.6513 C   0  0  0  0  0  0  0  0  0  0  0  0
    5.4780    1.3450   19.3120 C   0  0  0  0  0  0  0  0  0  0  0  0
    6.2588    0.4461   18.6068 C   0  0  0  0  0  0  0  0  0  0  0  0
    7.2951   -0.2113   19.2359 C   0  0  0  0  0  0  0  0  0  0  0  0
    8.0432    3.4194   22.1845 N   0  0  0  0  0  0  0  0  0  0  0  0
   10.2089    0.8411   23.3575 N   0  0  0  0  0  0  0  0  0  0  0  0
    6.2688    4.0959   23.3478 O   0  0  0  0  0  0  0  0  0  0  0  0
    6.0456    0.2145   17.2905 O   0  0  0  0  0  0  0  0  0  0  0  0
    9.9757    1.8052   21.3393 O   0  0  0  0  0  0  0  0  0  0  0  0
    6.5333    6.2698   22.1662 H   0  0  0  0  0  0  0  0  0  0  0  0
    8.1463    6.0643   22.0163 H   0  0  0  0  0  0  0  0  0  0  0  0
    7.1424    5.5250   20.8468 H   0  0  0  0  0  0  0  0  0  0  0  0
    8.2944   -0.4590   21.0256 H   0  0  0  0  0  0  0  0  0  0  0  0
    8.3111    2.4231   23.9148 H   0  0  0  0  0  0  0  0  0  0  0  0
    6.2663    1.5674   23.1908 H   0  0  0  0  0  0  0  0  0  0  0  0
    7.3346    0.3323   23.1983 H   0  0  0  0  0  0  0  0  0  0  0  0
    5.1810    2.2273   21.1578 H   0  0  0  0  0  0  0  0  0  0  0  0
    4.7272    1.8249   18.8581 H   0  0  0  0  0  0  0  0  0  0  0  0
    7.8638   -0.8564   18.7255 H   0  0  0  0  0  0  0  0  0  0  0  0
    8.6043    3.5755   21.3715 H   0  0  0  0  0  0  0  0  0  0  0  0
    9.9316    0.8532   24.3182 H   0  0  0  0  0  0  0  0  0  0  0  0
    5.1124    0.1886   16.9321 H   0  0  0  0  0  0  0  0  0  0  0  0
   13.0207    1.7925   22.9414 C   0  0  0  0  0  0  0  0  0  0  0  0
   12.6126    0.4723   23.5749 C   0  0  0  0  0  0  0  0  0  0  0  0
   11.3238   -0.0192   22.9361 C   0  0  0  0  0  0  0  0  0  0  0  0
   13.8685    2.1159   23.3616 H   0  0  0  0  0  0  0  0  0  0  0  0
   13.1638    1.6613   21.9604 H   0  0  0  0  0  0  0  0  0  0  0  0
   12.2982    2.4687   23.0854 H   0  0  0  0  0  0  0  0  0  0  0  0
   12.4695    0.6035   24.5559 H   0  0  0  0  0  0  0  0  0  0  0  0
   13.3351   -0.2039   23.4309 H   0  0  0  0  0  0  0  0  0  0  0  0
   11.4119    0.0129   21.9405 H   0  0  0  0  0  0  0  0  0  0  0  0
   11.1465   -0.9601   23.2248 H   0  0  0  0  0  0  0  0  0  0  0  0
  1  4  1  0  0  0  0
  2  7  2  0  0  0  0
  2 11  1  0  0  0  0
  3  5  1  0  0  0  0
  3 13  1  0  0  0  0
  3 16  2  0  0  0  0
 15 29  1  0  0  0  0
  4 12  1  0  0  0  0
  4 14  2  0  0  0  0
  5  6  1  0  0  0  0
  5 12  1  0  0  0  0
  6  7  1  0  0  0  0
  7  8  1  0  0  0  0
  8  9  2  0  0  0  0
  9 10  1  0  0  0  0
 10 11  2  0  0  0  0
 10 15  1  0  0  0  0
  1 17  1  0  0  0  0
  1 18  1  0  0  0  0
  1 19  1  0  0  0  0
  2 20  1  0  0  0  0
  5 21  1  0  0  0  0
  6 22  1  0  0  0  0
  6 23  1  0  0  0  0
  8 24  1  0  0  0  0
  9 25  1  0  0  0  0
 11 26  1  0  0  0  0
 12 27  1  0  0  0  0
 13 28  1  0  0  0  0
 30 31  1  0  0  0  0
 31 32  1  0  0  0  0
 32 39  1  0  0  0  0
 30 33  1  0  0  0  0
 30 34  1  0  0  0  0
 30 35  1  0  0  0  0
 31 36  1  0  0  0  0
 31 37  1  0  0  0  0
 32 38  1  0  0  0  0
 13 32  1  0  0  0  0
M  END
> <BIOSOLVEIT.HYDE_ESTIMATED_AFFINITY_LOWER_BOUNDARY [nM]>
1540.087479

> <BIOSOLVEIT.HYDE_ESTIMATED_AFFINITY_UPPER_BOUNDARY [nM]>
153016.796782

> <BIOSOLVEIT.HYDE_LIGAND_EFFICIENCY range: ++, +, 0, -, -->
0

> <BIOSOLVEIT.HYDE_LIGAND_LIPOPHILIC_EFFICIENCY range: ++, +, 0, -, -->
0

> <BIOSOLVEIT.INTER_CLASH range: red, yellow, green>
green

> <BIOSOLVEIT.INTRA_CLASH range: red, yellow, green>
green

> <BIOSOLVEIT.LOGP>
0.9656

> <BIOSOLVEIT.MOLECULAR WEIGHT>
264.323

> <BIOSOLVEIT.MOLECULE_CHECKSUM>
LTI3LjQ3NzU7MS40NDYxOQ==

> <BIOSOLVEIT.TORSION_QUALITY range: red, yellow, green, not rotatable>
green

> <BIOSOLVEIT.TPSA>
78.43

$$$$
LIG_A_1101_[R*]C1CCC=C1_1
anSeeSAR  04022010373D 1   1.00000     0.00000     0
SeeSAR 9.2 andre
 39 40  0  0  0  0            999 V2000
    7.3252    5.6254   21.9124 C   0  0  0  0  0  0  0  0  0  0  0  0
    7.4675    0.1477   20.3892 C   0  0  0  0  0  0  0  0  0  0  0  0
    9.5269    1.4895   22.4517 C   0  0  0  0  0  0  0  0  0  0  0  0
    7.1742    4.2824   22.5524 C   0  0  0  0  0  0  0  0  0  0  0  0
    8.2085    2.0971   22.9121 C   0  0  2  0  0  0  0  0  0  0  0  0
    7.0333    1.1375   22.6624 C   0  0  0  0  0  0  0  0  0  0  0  0
    6.7063    0.9761   21.1981 C   0  0  0  0  0  0  0  0  0  0  0  0
    5.6620    1.6767   20.6125 C   0  0  0  0  0  0  0  0  0  0  0  0
    5.3783    1.5526   19.2629 C   0  0  0  0  0  0  0  0  0  0  0  0
    6.1534    0.7167   18.4783 C   0  0  0  0  0  0  0  0  0  0  0  0
    7.2010    0.0171   19.0394 C   0  0  0  0  0  0  0  0  0  0  0  0
    8.0602    3.3567   22.1970 N   0  0  0  0  0  0  0  0  0  0  0  0
    6.2668    4.0252   23.3358 O   0  0  0  0  0  0  0  0  0  0  0  0
    5.9233    0.5892   17.1506 O   0  0  0  0  0  0  0  0  0  0  0  0
    9.9921    1.7653   21.3472 O   0  0  0  0  0  0  0  0  0  0  0  0
    6.6108    6.2380   22.2506 H   0  0  0  0  0  0  0  0  0  0  0  0
    8.2230    6.0033   22.1384 H   0  0  0  0  0  0  0  0  0  0  0  0
    7.2426    5.5329   20.9201 H   0  0  0  0  0  0  0  0  0  0  0  0
    8.2256   -0.3663   20.7904 H   0  0  0  0  0  0  0  0  0  0  0  0
    8.2663    2.2877   23.8920 H   0  0  0  0  0  0  0  0  0  0  0  0
    6.2255    1.4936   23.1321 H   0  0  0  0  0  0  0  0  0  0  0  0
    7.2686    0.2408   23.0372 H   0  0  0  0  0  0  0  0  0  0  0  0
    5.1025    2.2840   21.1766 H   0  0  0  0  0  0  0  0  0  0  0  0
    4.6193    2.0628   18.8584 H   0  0  0  0  0  0  0  0  0  0  0  0
    7.7655   -0.5822   18.4720 H   0  0  0  0  0  0  0  0  0  0  0  0
    8.6478    3.5326   21.4072 H   0  0  0  0  0  0  0  0  0  0  0  0
    5.3469    1.2549   16.6768 H   0  0  0  0  0  0  0  0  0  0  0  0
   10.1820    0.5180   23.3993 C   0  0  2  0  0  0  0  0  0  0  0  0
   11.1652    1.2017   24.3181 C   0  0  0  0  0  0  0  0  0  0  0  0
   12.4168    1.2434   23.4715 C   0  0  0  0  0  0  0  0  0  0  0  0
   12.3318   -0.0629   22.7018 C   0  0  0  0  0  0  0  0  0  0  0  0
   11.0768   -0.4601   22.6565 C   0  0  0  0  0  0  0  0  0  0  0  0
    9.4911    0.0266   23.9295 H   0  0  0  0  0  0  0  0  0  0  0  0
   11.3100    0.6714   25.1535 H   0  0  0  0  0  0  0  0  0  0  0  0
   10.8581    2.1229   24.5571 H   0  0  0  0  0  0  0  0  0  0  0  0
   13.2382    1.2752   24.0410 H   0  0  0  0  0  0  0  0  0  0  0  0
   12.4093    2.0291   22.8529 H   0  0  0  0  0  0  0  0  0  0  0  0
   13.1066   -0.5456   22.2937 H   0  0  0  0  0  0  0  0  0  0  0  0
   10.7575   -1.2892   22.1975 H   0  0  0  0  0  0  0  0  0  0  0  0
  1  4  1  0  0  0  0
  2  7  2  0  0  0  0
  2 11  1  0  0  0  0
  3  5  1  0  0  0  0
 14 27  1  0  0  0  0
  3 15  2  0  0  0  0
  4 12  1  0  0  0  0
  4 13  2  0  0  0  0
  5  6  1  0  0  0  0
  5 12  1  0  0  0  0
  6  7  1  0  0  0  0
  7  8  1  0  0  0  0
  8  9  2  0  0  0  0
  9 10  1  0  0  0  0
 10 11  2  0  0  0  0
 10 14  1  0  0  0  0
  1 16  1  0  0  0  0
  1 17  1  0  0  0  0
  1 18  1  0  0  0  0
  2 19  1  0  0  0  0
  5 20  1  0  0  0  0
  6 21  1  0  0  0  0
  6 22  1  0  0  0  0
  8 23  1  0  0  0  0
  9 24  1  0  0  0  0
 11 25  1  0  0  0  0
 12 26  1  0  0  0  0
 32 39  1  0  0  0  0
 28 29  1  0  0  0  0
 29 30  1  0  0  0  0
 30 31  1  0  0  0  0
 31 32  2  0  0  0  0
 32 28  1  0  0  0  0
 28 33  1  0  0  0  0
 29 34  1  0  0  0  0
 29 35  1  0  0  0  0
 30 36  1  0  0  0  0
 30 37  1  0  0  0  0
 31 38  1  0  0  0  0
  3 28  1  0  0  0  0
M  END
> <BIOSOLVEIT.HYDE_ESTIMATED_AFFINITY_LOWER_BOUNDARY [nM]>
1857.461231

> <BIOSOLVEIT.HYDE_ESTIMATED_AFFINITY_UPPER_BOUNDARY [nM]>
184549.755470

> <BIOSOLVEIT.HYDE_LIGAND_EFFICIENCY range: ++, +, 0, -, -->
0

> <BIOSOLVEIT.HYDE_LIGAND_LIPOPHILIC_EFFICIENCY range: ++, +, 0, -, -->
-

> <BIOSOLVEIT.INTER_CLASH range: red, yellow, green>
green

> <BIOSOLVEIT.INTRA_CLASH range: red, yellow, green>
green

> <BIOSOLVEIT.LOGP>
1.9747

> <BIOSOLVEIT.MOLECULAR WEIGHT>
273.33

> <BIOSOLVEIT.MOLECULE_CHECKSUM>
LTI3LjAxMzE7MS4zNTA2NQ==

> <BIOSOLVEIT.TORSION_QUALITY range: red, yellow, green, not rotatable>
green

> <BIOSOLVEIT.TPSA>
66.4

$$$$
LIG_A_1101_Br[C@@H]1CC[NH+]([R*])C1_1
anSeeSAR  04022010373D 1   1.00000     0.00000     0
SeeSAR 9.2 andre
 40 41  0  0  0  0            999 V2000
    7.4922    5.6693   22.0901 C   0  0  0  0  0  0  0  0  0  0  0  0
    7.2967    0.1258   20.3892 C   0  0  0  0  0  0  0  0  0  0  0  0
    9.4029    1.3593   22.3510 C   0  0  0  0  0  0  0  0  0  0  0  0
    7.2579    4.3052   22.6560 C   0  0  0  0  0  0  0  0  0  0  0  0
    8.1529    2.0426   22.8893 C   0  0  2  0  0  0  0  0  0  0  0  0
    6.8971    1.1928   22.6336 C   0  0  0  0  0  0  0  0  0  0  0  0
    6.5873    1.0275   21.1661 C   0  0  0  0  0  0  0  0  0  0  0  0
    5.6131    1.7956   20.5453 C   0  0  0  0  0  0  0  0  0  0  0  0
    5.3471    1.6664   19.1926 C   0  0  0  0  0  0  0  0  0  0  0  0
    6.0693    0.7565   18.4405 C   0  0  0  0  0  0  0  0  0  0  0  0
    7.0474   -0.0112   19.0369 C   0  0  0  0  0  0  0  0  0  0  0  0
    8.0830    3.3466   22.2454 N   0  0  0  0  0  0  0  0  0  0  0  0
    6.3376    4.0628   23.4288 O   0  0  0  0  0  0  0  0  0  0  0  0
    5.8561    0.6202   17.1109 O   0  0  0  0  0  0  0  0  0  0  0  0
    9.7921    1.5775   21.2048 O   0  0  0  0  0  0  0  0  0  0  0  0
    6.8186    6.3061   22.4653 H   0  0  0  0  0  0  0  0  0  0  0  0
    8.4125    5.9770   22.3318 H   0  0  0  0  0  0  0  0  0  0  0  0
    7.4022    5.6372   21.0946 H   0  0  0  0  0  0  0  0  0  0  0  0
    8.0040   -0.4377   20.8161 H   0  0  0  0  0  0  0  0  0  0  0  0
    8.2571    2.1751   23.8750 H   0  0  0  0  0  0  0  0  0  0  0  0
    6.1172    1.6352   23.0763 H   0  0  0  0  0  0  0  0  0  0  0  0
    7.0380    0.2873   23.0337 H   0  0  0  0  0  0  0  0  0  0  0  0
    5.0921    2.4562   21.0859 H   0  0  0  0  0  0  0  0  0  0  0  0
    4.6387    2.2261   18.7625 H   0  0  0  0  0  0  0  0  0  0  0  0
    7.5741   -0.6645   18.4929 H   0  0  0  0  0  0  0  0  0  0  0  0
    8.6792    3.5286   21.4635 H   0  0  0  0  0  0  0  0  0  0  0  0
    5.3297    1.3112   16.6155 H   0  0  0  0  0  0  0  0  0  0  0  0
   11.6472    3.6494   23.5689 Br  0  0  0  0  0  0  0  0  0  0  0  0
   11.8365    1.7632   24.0667 C   0  0  2  0  0  0  0  0  0  0  0  0
   12.3613    0.9108   22.9262 C   0  0  0  0  0  0  0  0  0  0  0  0
   11.2667   -0.1030   22.6421 C   0  0  0  0  0  0  0  0  0  0  0  0
   10.0369    0.4592   23.2121 N   0  0  0  0  0  0  0  0  0  0  0  0
   10.5265    1.0889   24.4386 C   0  0  0  0  0  0  0  0  0  0  0  0
   12.4672    1.6939   24.8396 H   0  0  0  0  0  0  0  0  0  0  0  0
   13.2056    0.4476   23.1956 H   0  0  0  0  0  0  0  0  0  0  0  0
   12.5336    1.4749   22.1187 H   0  0  0  0  0  0  0  0  0  0  0  0
   11.4824   -0.9779   23.0757 H   0  0  0  0  0  0  0  0  0  0  0  0
   11.1636   -0.2359   21.6563 H   0  0  0  0  0  0  0  0  0  0  0  0
    9.8684    1.7657   24.7686 H   0  0  0  0  0  0  0  0  0  0  0  0
   10.6790    0.3994   25.1466 H   0  0  0  0  0  0  0  0  0  0  0  0
  1  4  1  0  0  0  0
  2  7  2  0  0  0  0
  2 11  1  0  0  0  0
  3  5  1  0  0  0  0
 14 27  1  0  0  0  0
  3 15  2  0  0  0  0
  4 12  1  0  0  0  0
  4 13  2  0  0  0  0
  5  6  1  0  0  0  0
  5 12  1  0  0  0  0
  6  7  1  0  0  0  0
  7  8  1  0  0  0  0
  8  9  2  0  0  0  0
  9 10  1  0  0  0  0
 10 11  2  0  0  0  0
 10 14  1  0  0  0  0
  1 16  1  0  0  0  0
  1 17  1  0  0  0  0
  1 18  1  0  0  0  0
  2 19  1  0  0  0  0
  5 20  1  0  0  0  0
  6 21  1  0  0  0  0
  6 22  1  0  0  0  0
  8 23  1  0  0  0  0
  9 24  1  0  0  0  0
 11 25  1  0  0  0  0
 12 26  1  0  0  0  0
 28 29  1  0  0  0  0
 29 30  1  0  0  0  0
 30 31  1  0  0  0  0
 31 32  1  0  0  0  0
 33 40  1  0  0  0  0
 32 33  1  0  0  0  0
 33 29  1  0  0  0  0
 29 34  1  0  0  0  0
  3 32  1  0  0  0  0
 30 35  1  0  0  0  0
 30 36  1  0  0  0  0
 31 37  1  0  0  0  0
 31 38  1  0  0  0  0
 33 39  1  0  0  0  0
M  END
> <BIOSOLVEIT.HYDE_ESTIMATED_AFFINITY_LOWER_BOUNDARY [nM]>
2168.855717

> <BIOSOLVEIT.HYDE_ESTIMATED_AFFINITY_UPPER_BOUNDARY [nM]>
215488.638778

> <BIOSOLVEIT.HYDE_LIGAND_EFFICIENCY range: ++, +, 0, -, -->
0

> <BIOSOLVEIT.HYDE_LIGAND_LIPOPHILIC_EFFICIENCY range: ++, +, 0, -, -->
-

> <BIOSOLVEIT.INTER_CLASH range: red, yellow, green>
green

> <BIOSOLVEIT.INTRA_CLASH range: red, yellow, green>
green

> <BIOSOLVEIT.LOGP>
1.4352

> <BIOSOLVEIT.MOLECULAR WEIGHT>
355.23

> <BIOSOLVEIT.MOLECULE_CHECKSUM>
LTI2LjYyODg7MS4yNjgwNA==

> <BIOSOLVEIT.TORSION_QUALITY range: red, yellow, green, not rotatable>
green

> <BIOSOLVEIT.TPSA>
69.64

$$$$
LIG_A_1101_CC(C)C[R*]_1
anSeeSAR  04022010373D 1   1.00000     0.00000     0
SeeSAR 9.2 andre
 40 40  0  0  0  0            999 V2000
    7.2795    5.6720   21.8275 C   0  0  0  0  0  0  0  0  0  0  0  0
    7.5095    0.0185   20.5819 C   0  0  0  0  0  0  0  0  0  0  0  0
    9.5354    1.5815   22.4749 C   0  0  0  0  0  0  0  0  0  0  0  0
    7.1562    4.3530   22.5210 C   0  0  0  0  0  0  0  0  0  0  0  0
    8.2199    2.1924   22.9393 C   0  0  2  0  0  0  0  0  0  0  0  0
    7.0506    1.2119   22.7500 C   0  0  0  0  0  0  0  0  0  0  0  0
    6.7494    0.9286   21.2988 C   0  0  0  0  0  0  0  0  0  0  0  0
    5.7312    1.5941   20.6320 C   0  0  0  0  0  0  0  0  0  0  0  0
    5.4717    1.3571   19.2926 C   0  0  0  0  0  0  0  0  0  0  0  0
    6.2451    0.4415   18.6009 C   0  0  0  0  0  0  0  0  0  0  0  0
    7.2671   -0.2252   19.2434 C   0  0  0  0  0  0  0  0  0  0  0  0
    8.0432    3.4225   22.1808 N   0  0  0  0  0  0  0  0  0  0  0  0
    6.2692    4.1175   23.3339 O   0  0  0  0  0  0  0  0  0  0  0  0
    6.0388    0.2021   17.2849 O   0  0  0  0  0  0  0  0  0  0  0  0
    9.9492    1.7780   21.3336 O   0  0  0  0  0  0  0  0  0  0  0  0
    6.5669    6.2906   22.1585 H   0  0  0  0  0  0  0  0  0  0  0  0
    8.1784    6.0664   22.0187 H   0  0  0  0  0  0  0  0  0  0  0  0
    7.1758    5.5412   20.8415 H   0  0  0  0  0  0  0  0  0  0  0  0
    8.2490   -0.4722   21.0427 H   0  0  0  0  0  0  0  0  0  0  0  0
    8.2954    2.4204   23.9101 H   0  0  0  0  0  0  0  0  0  0  0  0
    6.2343    1.6035   23.1746 H   0  0  0  0  0  0  0  0  0  0  0  0
    7.2808    0.3501   23.2021 H   0  0  0  0  0  0  0  0  0  0  0  0
    5.1731    2.2588   21.1287 H   0  0  0  0  0  0  0  0  0  0  0  0
    4.7313    1.8437   18.8289 H   0  0  0  0  0  0  0  0  0  0  0  0
    7.8305   -0.8824   18.7427 H   0  0  0  0  0  0  0  0  0  0  0  0
    8.6113    3.5737   21.3718 H   0  0  0  0  0  0  0  0  0  0  0  0
    5.1081    0.1868   16.9194 H   0  0  0  0  0  0  0  0  0  0  0  0
   11.4229    2.8844   23.6929 C   0  0  0  0  0  0  0  0  0  0  0  0
   11.5440    1.3836   23.9015 C   0  0  0  0  0  0  0  0  0  0  0  0
   12.6997    0.8484   23.0717 C   0  0  0  0  0  0  0  0  0  0  0  0
   10.2537    0.7062   23.4694 C   0  0  0  0  0  0  0  0  0  0  0  0
   10.6626    3.2365   24.2388 H   0  0  0  0  0  0  0  0  0  0  0  0
   12.2718    3.3300   23.9771 H   0  0  0  0  0  0  0  0  0  0  0  0
   11.2546    3.0740   22.7256 H   0  0  0  0  0  0  0  0  0  0  0  0
   11.7123    1.1940   24.8688 H   0  0  0  0  0  0  0  0  0  0  0  0
   12.7794   -0.1390   23.2089 H   0  0  0  0  0  0  0  0  0  0  0  0
   12.5314    1.0380   22.1044 H   0  0  0  0  0  0  0  0  0  0  0  0
   13.5486    1.2940   23.3560 H   0  0  0  0  0  0  0  0  0  0  0  0
   10.4652   -0.1748   23.0463 H   0  0  0  0  0  0  0  0  0  0  0  0
    9.6699    0.5608   24.2682 H   0  0  0  0  0  0  0  0  0  0  0  0
  1  4  1  0  0  0  0
  2  7  2  0  0  0  0
  2 11  1  0  0  0  0
  3  5  1  0  0  0  0
 14 27  1  0  0  0  0
  3 15  2  0  0  0  0
  4 12  1  0  0  0  0
  4 13  2  0  0  0  0
  5  6  1  0  0  0  0
  5 12  1  0  0  0  0
  6  7  1  0  0  0  0
  7  8  1  0  0  0  0
  8  9  2  0  0  0  0
  9 10  1  0  0  0  0
 10 11  2  0  0  0  0
 10 14  1  0  0  0  0
  1 16  1  0  0  0  0
  1 17  1  0  0  0  0
  1 18  1  0  0  0  0
  2 19  1  0  0  0  0
  5 20  1  0  0  0  0
  6 21  1  0  0  0  0
  6 22  1  0  0  0  0
  8 23  1  0  0  0  0
  9 24  1  0  0  0  0
 11 25  1  0  0  0  0
 12 26  1  0  0  0  0
 28 29  1  0  0  0  0
 29 30  1  0  0  0  0
 29 31  1  0  0  0  0
 31 40  1  0  0  0  0
 28 32  1  0  0  0  0
 28 33  1  0  0  0  0
 28 34  1  0  0  0  0
 29 35  1  0  0  0  0
 30 36  1  0  0  0  0
 30 37  1  0  0  0  0
 30 38  1  0  0  0  0
 31 39  1  0  0  0  0
  3 31  1  0  0  0  0
M  END
> <BIOSOLVEIT.HYDE_ESTIMATED_AFFINITY_LOWER_BOUNDARY [nM]>
2305.462216

> <BIOSOLVEIT.HYDE_ESTIMATED_AFFINITY_UPPER_BOUNDARY [nM]>
229061.302087

> <BIOSOLVEIT.HYDE_LIGAND_EFFICIENCY range: ++, +, 0, -, -->
0

> <BIOSOLVEIT.HYDE_LIGAND_LIPOPHILIC_EFFICIENCY range: ++, +, 0, -, -->
-

> <BIOSOLVEIT.INTER_CLASH range: red, yellow, green>
green

> <BIOSOLVEIT.INTRA_CLASH range: red, yellow, green>
green

> <BIOSOLVEIT.LOGP>
2.0546

> <BIOSOLVEIT.MOLECULAR WEIGHT>
263.335

> <BIOSOLVEIT.MOLECULE_CHECKSUM>
LTI2LjQ3NzQ7MS4zOTM1NQ==

> <BIOSOLVEIT.TORSION_QUALITY range: red, yellow, green, not rotatable>
green

> <BIOSOLVEIT.TPSA>
66.4

$$$$
LIG_A_1101_CC(C)OCCC[R*]_1
anSeeSAR  04022010373D 1   1.00000     0.00000     0
SeeSAR 9.2 andre
 47 47  0  0  0  0            999 V2000
    7.4892    5.6941   21.9949 C   0  0  0  0  0  0  0  0  0  0  0  0
    7.2296    0.2656   20.3121 C   0  0  0  0  0  0  0  0  0  0  0  0
    9.2566    1.3293   22.3943 C   0  0  0  0  0  0  0  0  0  0  0  0
    7.1861    4.3422   22.5576 C   0  0  0  0  0  0  0  0  0  0  0  0
    8.0105    2.0627   22.8725 C   0  0  2  0  0  0  0  0  0  0  0  0
    6.7369    1.2547   22.5736 C   0  0  0  0  0  0  0  0  0  0  0  0
    6.4633    1.1127   21.0964 C   0  0  0  0  0  0  0  0  0  0  0  0
    5.4656    1.8497   20.4753 C   0  0  0  0  0  0  0  0  0  0  0  0
    5.2319    1.7428   19.1146 C   0  0  0  0  0  0  0  0  0  0  0  0
    6.0108    0.8876   18.3551 C   0  0  0  0  0  0  0  0  0  0  0  0
    7.0128    0.1517   18.9520 C   0  0  0  0  0  0  0  0  0  0  0  0
    8.0140    3.3605   22.2125 N   0  0  0  0  0  0  0  0  0  0  0  0
    6.2111    4.1295   23.2698 O   0  0  0  0  0  0  0  0  0  0  0  0
    5.8297    0.7756   17.0185 O   0  0  0  0  0  0  0  0  0  0  0  0
    9.8222    1.6665   21.3556 O   0  0  0  0  0  0  0  0  0  0  0  0
    6.8073    6.3502   22.3181 H   0  0  0  0  0  0  0  0  0  0  0  0
    8.3984    5.9835   22.2943 H   0  0  0  0  0  0  0  0  0  0  0  0
    7.4647    5.6525   20.9961 H   0  0  0  0  0  0  0  0  0  0  0  0
    7.9546   -0.2748   20.7391 H   0  0  0  0  0  0  0  0  0  0  0  0
    8.0786    2.2034   23.8603 H   0  0  0  0  0  0  0  0  0  0  0  0
    5.9589    1.7168   22.9990 H   0  0  0  0  0  0  0  0  0  0  0  0
    6.8387    0.3415   22.9682 H   0  0  0  0  0  0  0  0  0  0  0  0
    4.9036    2.4709   21.0214 H   0  0  0  0  0  0  0  0  0  0  0  0
    4.5060    2.2794   18.6843 H   0  0  0  0  0  0  0  0  0  0  0  0
    7.5803   -0.4618   18.4028 H   0  0  0  0  0  0  0  0  0  0  0  0
    8.6648    3.5199   21.4701 H   0  0  0  0  0  0  0  0  0  0  0  0
    5.4013    1.5209   16.5077 H   0  0  0  0  0  0  0  0  0  0  0  0
   13.7570    0.4359   22.7356 C   0  0  0  0  0  0  0  0  0  0  0  0
   12.9695   -0.6484   23.4528 C   0  0  0  0  0  0  0  0  0  0  0  0
   13.8742   -1.8409   23.7170 C   0  0  0  0  0  0  0  0  0  0  0  0
   12.4818   -0.1417   24.6864 O   0  0  0  0  0  0  0  0  0  0  0  0
   11.7015    1.0199   24.4458 C   0  0  0  0  0  0  0  0  0  0  0  0
   10.2266    0.6745   24.5710 C   0  0  0  0  0  0  0  0  0  0  0  0
    9.7106    0.1643   23.2355 C   0  0  0  0  0  0  0  0  0  0  0  0
   13.1618    1.2205   22.5617 H   0  0  0  0  0  0  0  0  0  0  0  0
   14.5268    0.7216   23.3063 H   0  0  0  0  0  0  0  0  0  0  0  0
   14.1005    0.0792   21.8668 H   0  0  0  0  0  0  0  0  0  0  0  0
   12.1997   -0.9340   22.8820 H   0  0  0  0  0  0  0  0  0  0  0  0
   13.3560   -2.5543   24.1889 H   0  0  0  0  0  0  0  0  0  0  0  0
   14.2177   -2.1977   22.8483 H   0  0  0  0  0  0  0  0  0  0  0  0
   14.6440   -1.5553   24.2878 H   0  0  0  0  0  0  0  0  0  0  0  0
   11.8869    1.3610   23.5242 H   0  0  0  0  0  0  0  0  0  0  0  0
   11.9370    1.7243   25.1155 H   0  0  0  0  0  0  0  0  0  0  0  0
    9.7143    1.4913   24.8363 H   0  0  0  0  0  0  0  0  0  0  0  0
   10.1080   -0.0339   25.2668 H   0  0  0  0  0  0  0  0  0  0  0  0
   10.4420   -0.3249   22.7604 H   0  0  0  0  0  0  0  0  0  0  0  0
    8.9409   -0.4551   23.3901 H   0  0  0  0  0  0  0  0  0  0  0  0
  1  4  1  0  0  0  0
  2  7  2  0  0  0  0
  2 11  1  0  0  0  0
  3  5  1  0  0  0  0
 14 27  1  0  0  0  0
  3 15  2  0  0  0  0
  4 12  1  0  0  0  0
  4 13  2  0  0  0  0
  5  6  1  0  0  0  0
  5 12  1  0  0  0  0
  6  7  1  0  0  0  0
  7  8  1  0  0  0  0
  8  9  2  0  0  0  0
  9 10  1  0  0  0  0
 10 11  2  0  0  0  0
 10 14  1  0  0  0  0
  1 16  1  0  0  0  0
  1 17  1  0  0  0  0
  1 18  1  0  0  0  0
  2 19  1  0  0  0  0
  5 20  1  0  0  0  0
  6 21  1  0  0  0  0
  6 22  1  0  0  0  0
  8 23  1  0  0  0  0
  9 24  1  0  0  0  0
 11 25  1  0  0  0  0
 12 26  1  0  0  0  0
 28 29  1  0  0  0  0
 29 30  1  0  0  0  0
 29 31  1  0  0  0  0
 31 32  1  0  0  0  0
 32 33  1  0  0  0  0
 33 34  1  0  0  0  0
 34 47  1  0  0  0  0
 28 35  1  0  0  0  0
 28 36  1  0  0  0  0
 28 37  1  0  0  0  0
 29 38  1  0  0  0  0
 30 39  1  0  0  0  0
 30 40  1  0  0  0  0
 30 41  1  0  0  0  0
 32 42  1  0  0  0  0
 32 43  1  0  0  0  0
 33 44  1  0  0  0  0
 33 45  1  0  0  0  0
 34 46  1  0  0  0  0
  3 34  1  0  0  0  0
M  END
> <BIOSOLVEIT.HYDE_ESTIMATED_AFFINITY_LOWER_BOUNDARY [nM]>
2418.268107

> <BIOSOLVEIT.HYDE_ESTIMATED_AFFINITY_UPPER_BOUNDARY [nM]>
240269.234322

> <BIOSOLVEIT.HYDE_LIGAND_EFFICIENCY range: ++, +, 0, -, -->
-

> <BIOSOLVEIT.HYDE_LIGAND_LIPOPHILIC_EFFICIENCY range: ++, +, 0, -, -->
-

> <BIOSOLVEIT.INTER_CLASH range: red, yellow, green>
green

> <BIOSOLVEIT.INTRA_CLASH range: red, yellow, green>
green

> <BIOSOLVEIT.LOGP>
2.2137

> <BIOSOLVEIT.MOLECULAR WEIGHT>
307.388

> <BIOSOLVEIT.MOLECULE_CHECKSUM>
LTI2LjM1OTsxLjE5ODE0

> <BIOSOLVEIT.TORSION_QUALITY range: red, yellow, green, not rotatable>
yellow

> <BIOSOLVEIT.TPSA>
75.63

$$$$
LIG_A_1101_CCN([R*])CC_1
anSeeSAR  04022010373D 1   1.00000     0.00000     0
SeeSAR 9.2 andre
 42 42  0  0  0  0            999 V2000
    7.1002    5.5862   21.8365 C   0  0  0  0  0  0  0  0  0  0  0  0
    7.5450    0.0839   20.3729 C   0  0  0  0  0  0  0  0  0  0  0  0
    9.6375    1.6722   22.4560 C   0  0  0  0  0  0  0  0  0  0  0  0
    7.0685    4.2572   22.5212 C   0  0  0  0  0  0  0  0  0  0  0  0
    8.2617    2.1567   22.8937 C   0  0  2  0  0  0  0  0  0  0  0  0
    7.1886    1.0813   22.6563 C   0  0  0  0  0  0  0  0  0  0  0  0
    6.8217    0.9275   21.2007 C   0  0  0  0  0  0  0  0  0  0  0  0
    5.7778    1.6500   20.6414 C   0  0  0  0  0  0  0  0  0  0  0  0
    5.4579    1.5324   19.2994 C   0  0  0  0  0  0  0  0  0  0  0  0
    6.1955    0.6811   18.4956 C   0  0  0  0  0  0  0  0  0  0  0  0
    7.2421   -0.0404   19.0303 C   0  0  0  0  0  0  0  0  0  0  0  0
    7.9972    3.3806   22.1507 N   0  0  0  0  0  0  0  0  0  0  0  0
    6.2170    3.9663   23.3539 O   0  0  0  0  0  0  0  0  0  0  0  0
    5.9296    0.5590   17.1742 O   0  0  0  0  0  0  0  0  0  0  0  0
    9.8865    1.4843   21.2662 O   0  0  0  0  0  0  0  0  0  0  0  0
    6.3627    6.1613   22.1906 H   0  0  0  0  0  0  0  0  0  0  0  0
    7.9801    6.0290   22.0086 H   0  0  0  0  0  0  0  0  0  0  0  0
    6.9788    5.4571   20.8523 H   0  0  0  0  0  0  0  0  0  0  0  0
    8.3021   -0.4460   20.7550 H   0  0  0  0  0  0  0  0  0  0  0  0
    8.2915    2.3723   23.8698 H   0  0  0  0  0  0  0  0  0  0  0  0
    6.3667    1.3327   23.1675 H   0  0  0  0  0  0  0  0  0  0  0  0
    7.5352    0.2055   22.9920 H   0  0  0  0  0  0  0  0  0  0  0  0
    5.2454    2.2684   21.2194 H   0  0  0  0  0  0  0  0  0  0  0  0
    4.6997    2.0585   18.9141 H   0  0  0  0  0  0  0  0  0  0  0  0
    7.7797   -0.6511   18.4489 H   0  0  0  0  0  0  0  0  0  0  0  0
    8.5352    3.5694   21.3292 H   0  0  0  0  0  0  0  0  0  0  0  0
    5.3216    1.2129   16.7240 H   0  0  0  0  0  0  0  0  0  0  0  0
   11.8415    3.5006   23.4471 C   0  0  0  0  0  0  0  0  0  0  0  0
   10.8261    2.6670   24.2117 C   0  0  0  0  0  0  0  0  0  0  0  0
   10.5602    1.4225   23.4759 N   0  0  0  0  0  0  0  0  0  0  0  0
   11.8127    0.9216   22.8917 C   0  0  0  0  0  0  0  0  0  0  0  0
   12.5638    0.1028   23.9290 C   0  0  0  0  0  0  0  0  0  0  0  0
   12.0223    4.3472   23.9476 H   0  0  0  0  0  0  0  0  0  0  0  0
   12.6916    2.9832   23.3492 H   0  0  0  0  0  0  0  0  0  0  0  0
   11.4785    3.7199   22.5414 H   0  0  0  0  0  0  0  0  0  0  0  0
    9.9760    3.1844   24.3095 H   0  0  0  0  0  0  0  0  0  0  0  0
   11.1890    2.4477   25.1173 H   0  0  0  0  0  0  0  0  0  0  0  0
   12.3784    1.6941   22.6034 H   0  0  0  0  0  0  0  0  0  0  0  0
   11.6049    0.3469   22.1001 H   0  0  0  0  0  0  0  0  0  0  0  0
   13.4158   -0.2380   23.5316 H   0  0  0  0  0  0  0  0  0  0  0  0
   12.7716    0.6774   24.7205 H   0  0  0  0  0  0  0  0  0  0  0  0
   11.9980   -0.6698   24.2172 H   0  0  0  0  0  0  0  0  0  0  0  0
  1  4  1  0  0  0  0
  2  7  2  0  0  0  0
  2 11  1  0  0  0  0
  3  5  1  0  0  0  0
 14 27  1  0  0  0  0
  3 15  2  0  0  0  0
  4 12  1  0  0  0  0
  4 13  2  0  0  0  0
  5  6  1  0  0  0  0
  5 12  1  0  0  0  0
  6  7  1  0  0  0  0
  7  8  1  0  0  0  0
  8  9  2  0  0  0  0
  9 10  1  0  0  0  0
 10 11  2  0  0  0  0
 10 14  1  0  0  0  0
  1 16  1  0  0  0  0
  1 17  1  0  0  0  0
  1 18  1  0  0  0  0
  2 19  1  0  0  0  0
  5 20  1  0  0  0  0
  6 21  1  0  0  0  0
  6 22  1  0  0  0  0
  8 23  1  0  0  0  0
  9 24  1  0  0  0  0
 11 25  1  0  0  0  0
 12 26  1  0  0  0  0
 28 29  1  0  0  0  0
 29 30  1  0  0  0  0
  3 30  1  0  0  0  0
 30 31  1  0  0  0  0
 31 32  1  0  0  0  0
 28 33  1  0  0  0  0
 28 34  1  0  0  0  0
 28 35  1  0  0  0  0
 29 36  1  0  0  0  0
 29 37  1  0  0  0  0
 31 38  1  0  0  0  0
 31 39  1  0  0  0  0
 32 40  1  0  0  0  0
 32 41  1  0  0  0  0
 32 42  1  0  0  0  0
M  END
> <BIOSOLVEIT.HYDE_ESTIMATED_AFFINITY_LOWER_BOUNDARY [nM]>
2629.568148

> <BIOSOLVEIT.HYDE_ESTIMATED_AFFINITY_UPPER_BOUNDARY [nM]>
261263.142756

> <BIOSOLVEIT.HYDE_LIGAND_EFFICIENCY range: ++, +, 0, -, -->
0

> <BIOSOLVEIT.HYDE_LIGAND_LIPOPHILIC_EFFICIENCY range: ++, +, 0, -, -->
-

> <BIOSOLVEIT.INTER_CLASH range: red, yellow, green>
green

> <BIOSOLVEIT.INTRA_CLASH range: red, yellow, green>
yellow

> <BIOSOLVEIT.LOGP>
1.3078

> <BIOSOLVEIT.MOLECULAR WEIGHT>
278.35

> <BIOSOLVEIT.MOLECULE_CHECKSUM>
LTI2LjE1MTQ7MS4zMDc1Nw==

> <BIOSOLVEIT.TORSION_QUALITY range: red, yellow, green, not rotatable>
red

> <BIOSOLVEIT.TPSA>
69.64

$$$$
LIG_A_1101_COCN[R*]_1
anSeeSAR  04022010373D 1   1.00000     0.00000     0
SeeSAR 9.2 andre
 37 37  0  0  0  0            999 V2000
    7.2278    5.6235   21.8399 C   0  0  0  0  0  0  0  0  0  0  0  0
    7.6230    0.0210   20.5643 C   0  0  0  0  0  0  0  0  0  0  0  0
    9.6469    1.6329   22.4895 C   0  0  0  0  0  0  0  0  0  0  0  0
    7.1634    4.3068   22.5457 C   0  0  0  0  0  0  0  0  0  0  0  0
    8.3054    2.1845   22.9537 C   0  0  2  0  0  0  0  0  0  0  0  0
    7.1821    1.1506   22.7700 C   0  0  0  0  0  0  0  0  0  0  0  0
    6.8532    0.8903   21.3204 C   0  0  0  0  0  0  0  0  0  0  0  0
    5.7984    1.5380   20.6943 C   0  0  0  0  0  0  0  0  0  0  0  0
    5.5127    1.3228   19.3566 C   0  0  0  0  0  0  0  0  0  0  0  0
    6.2965    0.4478   18.6251 C   0  0  0  0  0  0  0  0  0  0  0  0
    7.3546   -0.2003   19.2268 C   0  0  0  0  0  0  0  0  0  0  0  0
    8.0712    3.4023   22.1908 N   0  0  0  0  0  0  0  0  0  0  0  0
    6.3041    4.0497   23.3815 O   0  0  0  0  0  0  0  0  0  0  0  0
    6.0646    0.2314   17.3094 O   0  0  0  0  0  0  0  0  0  0  0  0
   10.0358    1.8179   21.3374 O   0  0  0  0  0  0  0  0  0  0  0  0
    6.5039    6.2217   22.1836 H   0  0  0  0  0  0  0  0  0  0  0  0
    8.1179    6.0477   22.0064 H   0  0  0  0  0  0  0  0  0  0  0  0
    7.1047    5.4815   20.8577 H   0  0  0  0  0  0  0  0  0  0  0  0
    8.3888   -0.4562   20.9954 H   0  0  0  0  0  0  0  0  0  0  0  0
    8.3717    2.4194   23.9234 H   0  0  0  0  0  0  0  0  0  0  0  0
    6.3597    1.4885   23.2278 H   0  0  0  0  0  0  0  0  0  0  0  0
    7.4685    0.2902   23.1914 H   0  0  0  0  0  0  0  0  0  0  0  0
    5.2326    2.1734   21.2198 H   0  0  0  0  0  0  0  0  0  0  0  0
    4.7460    1.7960   18.9225 H   0  0  0  0  0  0  0  0  0  0  0  0
    7.9254   -0.8280   18.6974 H   0  0  0  0  0  0  0  0  0  0  0  0
    8.6146    3.5649   21.3672 H   0  0  0  0  0  0  0  0  0  0  0  0
    5.1259    0.1946   16.9666 H   0  0  0  0  0  0  0  0  0  0  0  0
   13.1076   -0.2053   24.2966 C   0  0  0  0  0  0  0  0  0  0  0  0
   12.7004    0.6070   23.2053 O   0  0  0  0  0  0  0  0  0  0  0  0
   11.6856    1.5027   23.6345 C   0  0  0  0  0  0  0  0  0  0  0  0
   10.3676    0.8862   23.4260 N   0  0  0  0  0  0  0  0  0  0  0  0
   13.8222   -0.8360   23.9943 H   0  0  0  0  0  0  0  0  0  0  0  0
   13.4632    0.3749   25.0294 H   0  0  0  0  0  0  0  0  0  0  0  0
   12.3240   -0.7266   24.6347 H   0  0  0  0  0  0  0  0  0  0  0  0
   11.7444    2.3503   23.1073 H   0  0  0  0  0  0  0  0  0  0  0  0
   11.8089    1.7052   24.6060 H   0  0  0  0  0  0  0  0  0  0  0  0
   10.0375    0.0604   23.8832 H   0  0  0  0  0  0  0  0  0  0  0  0
  1  4  1  0  0  0  0
  2  7  2  0  0  0  0
  2 11  1  0  0  0  0
  3  5  1  0  0  0  0
 14 27  1  0  0  0  0
  3 15  2  0  0  0  0
  4 12  1  0  0  0  0
  4 13  2  0  0  0  0
  5  6  1  0  0  0  0
  5 12  1  0  0  0  0
  6  7  1  0  0  0  0
  7  8  1  0  0  0  0
  8  9  2  0  0  0  0
  9 10  1  0  0  0  0
 10 11  2  0  0  0  0
 10 14  1  0  0  0  0
  1 16  1  0  0  0  0
  1 17  1  0  0  0  0
  1 18  1  0  0  0  0
  2 19  1  0  0  0  0
  5 20  1  0  0  0  0
  6 21  1  0  0  0  0
  6 22  1  0  0  0  0
  8 23  1  0  0  0  0
  9 24  1  0  0  0  0
 11 25  1  0  0  0  0
 12 26  1  0  0  0  0
 28 29  1  0  0  0  0
 29 30  1  0  0  0  0
 30 31  1  0  0  0  0
  3 31  1  0  0  0  0
 28 32  1  0  0  0  0
 28 33  1  0  0  0  0
 28 34  1  0  0  0  0
 30 35  1  0  0  0  0
 30 36  1  0  0  0  0
 31 37  1  0  0  0  0
M  END
> <BIOSOLVEIT.HYDE_ESTIMATED_AFFINITY_LOWER_BOUNDARY [nM]>
2844.089424

> <BIOSOLVEIT.HYDE_ESTIMATED_AFFINITY_UPPER_BOUNDARY [nM]>
282577.099857

> <BIOSOLVEIT.HYDE_LIGAND_EFFICIENCY range: ++, +, 0, -, -->
0

> <BIOSOLVEIT.HYDE_LIGAND_LIPOPHILIC_EFFICIENCY range: ++, +, 0, -, -->
0

> <BIOSOLVEIT.INTER_CLASH range: red, yellow, green>
green

> <BIOSOLVEIT.INTRA_CLASH range: red, yellow, green>
green

> <BIOSOLVEIT.LOGP>
0.1595

> <BIOSOLVEIT.MOLECULAR WEIGHT>
266.295

> <BIOSOLVEIT.MOLECULE_CHECKSUM>
LTI1Ljk1Njk7MS4zNjYxNQ==

> <BIOSOLVEIT.TORSION_QUALITY range: red, yellow, green, not rotatable>
yellow

> <BIOSOLVEIT.TPSA>
87.66

$$$$
