
     RDKit          3D

 72 77  0  0  0  0  0  0  0  0999 V2000
   -9.1126    3.7171    0.5269 C   0  0  0  0  0  0  0  0  0  0  0  0
   -7.6857    3.6041    0.2513 N   0  0  0  0  0  0  0  0  0  0  0  0
   -6.9310    2.4596    0.6533 C   0  0  0  0  0  0  0  0  0  0  0  0
   -7.1515    1.9131    1.7682 O   0  0  0  0  0  0  0  0  0  0  0  0
   -5.8684    1.9815   -0.1781 N   0  0  0  0  0  0  0  0  0  0  0  0
   -5.7554    0.5754   -0.4062 C   0  0  0  0  0  0  0  0  0  0  0  0
   -6.8807   -0.3250   -1.2877 S   0  0  0  0  0  0  0  0  0  0  0  0
   -6.0573   -1.7742   -1.0995 C   0  0  0  0  0  0  0  0  0  0  0  0
   -6.4501   -3.0311   -1.5562 C   0  0  0  0  0  0  0  0  0  0  0  0
   -5.6427   -4.1287   -1.2411 C   0  0  0  0  0  0  0  0  0  0  0  0
   -4.4731   -3.9560   -0.4771 C   0  0  0  0  0  0  0  0  0  0  0  0
   -4.1001   -2.6825   -0.0200 C   0  0  0  0  0  0  0  0  0  0  0  0
   -4.8958   -1.5785   -0.3554 C   0  0  0  0  0  0  0  0  0  0  0  0
   -4.7047   -0.2347    0.0279 C   0  0  0  0  0  0  0  0  0  0  0  0
   -3.6025    0.2572    0.8824 C   0  0  0  0  0  0  0  0  0  0  0  0
   -3.8667    1.0705    1.8164 O   0  0  0  0  0  0  0  0  0  0  0  0
   -2.2573   -0.2149    0.7140 N   0  0  0  0  0  0  0  0  0  0  0  0
   -1.4486   -0.5025    1.9064 C   0  0  0  0  0  0  0  0  0  0  0  0
   -0.3232   -1.4847    1.5659 C   0  0  0  0  0  0  0  0  0  0  0  0
    0.5750   -0.9713    0.4019 C   0  0  0  0  0  0  0  0  0  0  0  0
    1.8630   -0.4096    0.8937 N   0  0  0  0  0  0  0  0  0  0  0  0
    1.7309    0.6712    1.9014 C   0  0  0  0  0  0  0  0  0  0  0  0
    3.0858    1.3181    2.2621 C   0  0  0  0  0  0  0  0  0  0  0  0
    4.2595    0.4360    1.8330 C   0  0  0  0  0  0  0  0  0  0  0  0
    4.2115    0.1727    0.3097 C   0  0  0  0  0  0  0  0  0  0  0  0
    2.7618   -0.0146   -0.2086 C   0  0  0  0  0  0  0  0  0  0  0  0
    4.9227    1.2706   -0.4436 C   0  0  0  0  0  0  0  0  0  0  0  0
    4.5748    2.4814   -0.4585 O   0  0  0  0  0  0  0  0  0  0  0  0
    6.0888    0.7869   -1.1019 N   0  0  0  0  0  0  0  0  0  0  0  0
    6.9275    1.5165   -2.0477 C   0  0  0  0  0  0  0  0  0  0  0  0
    8.2922    0.8222   -2.1729 C   0  0  0  0  0  0  0  0  0  0  0  0
    8.1305   -0.6938   -2.3791 C   0  0  0  0  0  0  0  0  0  0  0  0
    7.3855   -1.3361   -1.2000 C   0  0  0  0  0  0  0  0  0  0  0  0
    6.1498   -0.5952   -0.9489 N   0  0  0  0  0  0  0  0  0  0  0  0
    5.1065   -0.9906   -0.0652 C   0  0  0  0  0  0  0  0  0  0  0  0
    4.9458   -2.1777    0.3241 O   0  0  0  0  0  0  0  0  0  0  0  0
   -0.1819   -0.0343   -0.5849 C   0  0  0  0  0  0  0  0  0  0  0  0
   -1.6781   -0.3624   -0.6311 C   0  0  0  0  0  0  0  0  0  0  0  0
   -9.6559    3.9194   -0.4194 H   0  0  0  0  0  0  0  0  0  0  0  0
   -9.2907    4.5505    1.2388 H   0  0  0  0  0  0  0  0  0  0  0  0
   -9.5139    2.7721    0.9575 H   0  0  0  0  0  0  0  0  0  0  0  0
   -7.2445    4.3128   -0.3807 H   0  0  0  0  0  0  0  0  0  0  0  0
   -5.5721    2.5928   -0.9700 H   0  0  0  0  0  0  0  0  0  0  0  0
   -7.3669   -3.1586   -2.1235 H   0  0  0  0  0  0  0  0  0  0  0  0
   -5.9139   -5.1198   -1.5849 H   0  0  0  0  0  0  0  0  0  0  0  0
   -3.8487   -4.8129   -0.2413 H   0  0  0  0  0  0  0  0  0  0  0  0
   -3.2176   -2.5744    0.5958 H   0  0  0  0  0  0  0  0  0  0  0  0
   -1.0436    0.4462    2.3084 H   0  0  0  0  0  0  0  0  0  0  0  0
   -2.0830   -0.9592    2.6996 H   0  0  0  0  0  0  0  0  0  0  0  0
   -0.7944   -2.4400    1.2535 H   0  0  0  0  0  0  0  0  0  0  0  0
    0.2746   -1.7250    2.4725 H   0  0  0  0  0  0  0  0  0  0  0  0
    0.8269   -1.8855   -0.1833 H   0  0  0  0  0  0  0  0  0  0  0  0
    1.0469    1.4695    1.5468 H   0  0  0  0  0  0  0  0  0  0  0  0
    1.3085    0.2581    2.8380 H   0  0  0  0  0  0  0  0  0  0  0  0
    3.1645    2.3065    1.7637 H   0  0  0  0  0  0  0  0  0  0  0  0
    3.1380    1.5037    3.3606 H   0  0  0  0  0  0  0  0  0  0  0  0
    5.2196    0.9196    2.1252 H   0  0  0  0  0  0  0  0  0  0  0  0
    4.1953   -0.5305    2.3864 H   0  0  0  0  0  0  0  0  0  0  0  0
    2.7532   -0.7846   -1.0191 H   0  0  0  0  0  0  0  0  0  0  0  0
    2.3913    0.9301   -0.6636 H   0  0  0  0  0  0  0  0  0  0  0  0
    7.0772    2.5614   -1.6853 H   0  0  0  0  0  0  0  0  0  0  0  0
    6.4250    1.5499   -3.0421 H   0  0  0  0  0  0  0  0  0  0  0  0
    8.8522    1.2579   -3.0297 H   0  0  0  0  0  0  0  0  0  0  0  0
    8.8803    1.0012   -1.2496 H   0  0  0  0  0  0  0  0  0  0  0  0
    9.1332   -1.1663   -2.4695 H   0  0  0  0  0  0  0  0  0  0  0  0
    7.5695   -0.8813   -3.3197 H   0  0  0  0  0  0  0  0  0  0  0  0
    7.1595   -2.4027   -1.4190 H   0  0  0  0  0  0  0  0  0  0  0  0
    8.0170   -1.2953   -0.2877 H   0  0  0  0  0  0  0  0  0  0  0  0
   -0.0737    1.0248   -0.2873 H   0  0  0  0  0  0  0  0  0  0  0  0
    0.2457   -0.1310   -1.6124 H   0  0  0  0  0  0  0  0  0  0  0  0
   -1.8334   -1.3933   -0.9996 H   0  0  0  0  0  0  0  0  0  0  0  0
   -2.1706    0.3285   -1.3493 H   0  0  0  0  0  0  0  0  0  0  0  0
  1  2  1  0
  2  3  1  0
  3  4  2  0
  3  5  1  0
  5  6  1  0
  6  7  1  0
  7  8  1  0
  8  9  2  0
  9 10  1  0
 10 11  2  0
 11 12  1  0
 12 13  2  0
 13 14  1  0
 14 15  1  0
 15 16  2  0
 15 17  1  0
 17 18  1  0
 18 19  1  0
 19 20  1  0
 20 21  1  0
 21 22  1  0
 22 23  1  0
 23 24  1  0
 24 25  1  0
 25 26  1  0
 25 27  1  0
 27 28  2  0
 27 29  1  0
 29 30  1  0
 30 31  1  0
 31 32  1  0
 32 33  1  0
 33 34  1  0
 34 35  1  0
 35 36  2  0
 20 37  1  0
 37 38  1  0
 14  6  2  0
 38 17  1  0
 13  8  1  0
 26 21  1  0
 34 29  1  0
 35 25  1  0
  1 39  1  0
  1 40  1  0
  1 41  1  0
  2 42  1  0
  5 43  1  0
  9 44  1  0
 10 45  1  0
 11 46  1  0
 12 47  1  0
 18 48  1  0
 18 49  1  0
 19 50  1  0
 19 51  1  0
 20 52  1  0
 22 53  1  0
 22 54  1  0
 23 55  1  0
 23 56  1  0
 24 57  1  0
 24 58  1  0
 26 59  1  0
 26 60  1  0
 30 61  1  0
 30 62  1  0
 31 63  1  0
 31 64  1  0
 32 65  1  0
 32 66  1  0
 33 67  1  0
 33 68  1  0
 37 69  1  0
 37 70  1  0
 38 71  1  0
 38 72  1  0
M  END
$$$$

     RDKit          3D

 66 71  0  0  0  0  0  0  0  0999 V2000
    9.2633   -3.0052    0.4567 C   0  0  0  0  0  0  0  0  0  0  0  0
    7.9686   -3.2954   -0.2283 C   0  0  0  0  0  0  0  0  0  0  0  0
    7.8158   -2.9680   -1.4352 O   0  0  0  0  0  0  0  0  0  0  0  0
    6.9110   -3.9475    0.4888 N   0  0  0  0  0  0  0  0  0  0  0  0
    5.3725   -4.2767   -0.2356 S   0  0  0  0  0  6  0  0  0  0  0  0
    4.6800   -5.3493    0.5550 O   0  0  0  0  0  0  0  0  0  0  0  0
    5.5599   -4.7796   -1.6382 O   0  0  0  0  0  0  0  0  0  0  0  0
    4.3966   -2.8117   -0.2384 C   0  0  0  0  0  0  0  0  0  0  0  0
    3.5488   -2.5322    0.8413 C   0  0  0  0  0  0  0  0  0  0  0  0
    2.8007   -1.3534    0.8579 C   0  0  0  0  0  0  0  0  0  0  0  0
    2.8914   -0.4378   -0.2038 C   0  0  0  0  0  0  0  0  0  0  0  0
    2.1361    0.8339   -0.1543 C   0  0  0  0  0  0  0  0  0  0  0  0
    2.7933    2.0639   -0.3349 C   0  0  0  0  0  0  0  0  0  0  0  0
    2.0999    3.2301   -0.1885 N   0  0  0  0  0  0  0  0  0  0  0  0
    0.7659    3.2564    0.1058 C   0  0  0  0  0  0  0  0  0  0  0  0
    0.0921    4.5162    0.2821 N   0  0  0  0  0  0  0  0  0  0  0  0
   -1.1100    4.8157   -0.5098 C   0  0  0  0  0  0  0  0  0  0  0  0
   -1.7948    6.1038   -0.0341 C   0  0  0  0  0  0  0  0  0  0  0  0
   -0.8509    7.1365    0.1634 O   0  0  0  0  0  0  0  0  0  0  0  0
   -0.0293    6.7983    1.2576 C   0  0  0  0  0  0  0  0  0  0  0  0
    0.8590    5.6046    0.9103 C   0  0  0  0  0  0  0  0  0  0  0  0
    0.1169    2.0262    0.2686 C   0  0  0  0  0  0  0  0  0  0  0  0
   -1.1862    1.8362    0.5639 N   0  0  0  0  0  0  0  0  0  0  0  0
   -1.3045    0.4882    0.5993 C   0  0  0  0  0  0  0  0  0  0  0  0
   -2.5960   -0.2306    0.8097 C   0  0  0  0  0  0  0  0  0  0  0  0
   -3.2722   -0.3620   -0.4367 O   0  0  0  0  0  0  0  0  0  0  0  0
   -4.5043   -1.0107   -0.5611 C   0  0  0  0  0  0  0  0  0  0  0  0
   -5.1135   -1.0923   -1.8185 C   0  0  0  0  0  0  0  0  0  0  0  0
   -6.3393   -1.7468   -1.9514 C   0  0  0  0  0  0  0  0  0  0  0  0
   -6.9500   -2.3129   -0.8260 C   0  0  0  0  0  0  0  0  0  0  0  0
   -8.1823   -2.9736   -0.9187 C   0  0  0  0  0  0  0  0  0  0  0  0
   -8.7669   -3.5255    0.2255 C   0  0  0  0  0  0  0  0  0  0  0  0
   -8.1259   -3.4226    1.4655 C   0  0  0  0  0  0  0  0  0  0  0  0
   -6.8980   -2.7640    1.5667 C   0  0  0  0  0  0  0  0  0  0  0  0
   -6.3064   -2.2079    0.4275 C   0  0  0  0  0  0  0  0  0  0  0  0
   -5.1126   -1.5666    0.5254 N   0  0  0  0  0  0  0  0  0  0  0  0
   -0.0906   -0.1110    0.3187 C   0  0  0  0  0  0  0  0  0  0  0  0
    0.8029    0.8767    0.1336 N   0  0  0  0  0  0  0  0  0  0  0  0
    3.7560   -0.7122   -1.2772 C   0  0  0  0  0  0  0  0  0  0  0  0
    4.5000   -1.8955   -1.2974 C   0  0  0  0  0  0  0  0  0  0  0  0
    9.7246   -3.9583    0.7887 H   0  0  0  0  0  0  0  0  0  0  0  0
    9.0730   -2.3661    1.3436 H   0  0  0  0  0  0  0  0  0  0  0  0
    9.9648   -2.4805   -0.2275 H   0  0  0  0  0  0  0  0  0  0  0  0
    7.0612   -4.2421    1.4807 H   0  0  0  0  0  0  0  0  0  0  0  0
    3.4865   -3.2170    1.6791 H   0  0  0  0  0  0  0  0  0  0  0  0
    2.1676   -1.1454    1.7108 H   0  0  0  0  0  0  0  0  0  0  0  0
    3.8532    2.0998   -0.5522 H   0  0  0  0  0  0  0  0  0  0  0  0
   -1.8557    3.9974   -0.4224 H   0  0  0  0  0  0  0  0  0  0  0  0
   -0.8253    4.9115   -1.5836 H   0  0  0  0  0  0  0  0  0  0  0  0
   -2.3918    5.9122    0.8899 H   0  0  0  0  0  0  0  0  0  0  0  0
   -2.5194    6.4312   -0.8127 H   0  0  0  0  0  0  0  0  0  0  0  0
   -0.6256    6.5927    2.1803 H   0  0  0  0  0  0  0  0  0  0  0  0
    0.6187    7.6719    1.4939 H   0  0  0  0  0  0  0  0  0  0  0  0
    1.6698    5.9333    0.2182 H   0  0  0  0  0  0  0  0  0  0  0  0
    1.3306    5.2365    1.8511 H   0  0  0  0  0  0  0  0  0  0  0  0
   -3.2307    0.3427    1.5215 H   0  0  0  0  0  0  0  0  0  0  0  0
   -2.3944   -1.2378    1.2380 H   0  0  0  0  0  0  0  0  0  0  0  0
   -4.6367   -0.6556   -2.6862 H   0  0  0  0  0  0  0  0  0  0  0  0
   -6.8072   -1.8079   -2.9262 H   0  0  0  0  0  0  0  0  0  0  0  0
   -8.6903   -3.0613   -1.8711 H   0  0  0  0  0  0  0  0  0  0  0  0
   -9.7175   -4.0353    0.1455 H   0  0  0  0  0  0  0  0  0  0  0  0
   -8.5754   -3.8553    2.3474 H   0  0  0  0  0  0  0  0  0  0  0  0
   -6.4073   -2.6865    2.5288 H   0  0  0  0  0  0  0  0  0  0  0  0
    0.1070   -1.1727    0.2369 H   0  0  0  0  0  0  0  0  0  0  0  0
    3.8527   -0.0144   -2.0983 H   0  0  0  0  0  0  0  0  0  0  0  0
    5.1707   -2.0885   -2.1259 H   0  0  0  0  0  0  0  0  0  0  0  0
  1  2  1  0
  2  3  2  0
  2  4  1  0
  4  5  1  0
  5  6  2  0
  5  7  2  0
  5  8  1  0
  8  9  2  0
  9 10  1  0
 10 11  2  0
 11 12  1  0
 12 13  2  0
 13 14  1  0
 14 15  2  0
 15 16  1  0
 16 17  1  0
 17 18  1  0
 18 19  1  0
 19 20  1  0
 20 21  1  0
 15 22  1  0
 22 23  2  0
 23 24  1  0
 24 25  1  0
 25 26  1  0
 26 27  1  0
 27 28  2  0
 28 29  1  0
 29 30  2  0
 30 31  1  0
 31 32  2  0
 32 33  1  0
 33 34  2  0
 34 35  1  0
 35 36  2  0
 24 37  2  0
 37 38  1  0
 11 39  1  0
 39 40  2  0
 40  8  1  0
 38 12  1  0
 21 16  1  0
 38 22  1  0
 36 27  1  0
 35 30  1  0
  1 41  1  0
  1 42  1  0
  1 43  1  0
  4 44  1  0
  9 45  1  0
 10 46  1  0
 13 47  1  0
 17 48  1  0
 17 49  1  0
 18 50  1  0
 18 51  1  0
 20 52  1  0
 20 53  1  0
 21 54  1  0
 21 55  1  0
 25 56  1  0
 25 57  1  0
 28 58  1  0
 29 59  1  0
 31 60  1  0
 32 61  1  0
 33 62  1  0
 34 63  1  0
 37 64  1  0
 39 65  1  0
 40 66  1  0
M  END
$$$$

     RDKit          3D

 75 80  0  0  0  0  0  0  0  0999 V2000
    7.9327   -1.8953    3.8571 C   0  0  0  0  0  0  0  0  0  0  0  0
    6.9663   -1.1443    3.0655 N   0  0  0  0  0  0  0  0  0  0  0  0
    6.9586   -1.1979    1.6337 C   0  0  0  0  0  0  0  0  0  0  0  0
    7.8365   -1.8713    1.0286 O   0  0  0  0  0  0  0  0  0  0  0  0
    5.9591   -0.4695    0.9033 N   0  0  0  0  0  0  0  0  0  0  0  0
    5.7749   -0.5320   -0.5228 C   0  0  0  0  0  0  0  0  0  0  0  0
    6.5247   -1.6297   -1.5746 S   0  0  0  0  0  0  0  0  0  0  0  0
    5.7245   -1.0949   -2.9481 C   0  0  0  0  0  0  0  0  0  0  0  0
    5.8648   -1.5576   -4.2543 C   0  0  0  0  0  0  0  0  0  0  0  0
    5.1017   -0.9467   -5.2602 C   0  0  0  0  0  0  0  0  0  0  0  0
    4.2267    0.1100   -4.9450 C   0  0  0  0  0  0  0  0  0  0  0  0
    4.1027    0.5618   -3.6205 C   0  0  0  0  0  0  0  0  0  0  0  0
    4.8566   -0.0624   -2.6166 C   0  0  0  0  0  0  0  0  0  0  0  0
    4.8684    0.2552   -1.2452 C   0  0  0  0  0  0  0  0  0  0  0  0
    4.0402    1.3138   -0.6370 C   0  0  0  0  0  0  0  0  0  0  0  0
    4.6179    2.2807   -0.0724 O   0  0  0  0  0  0  0  0  0  0  0  0
    2.5988    1.2471   -0.6682 N   0  0  0  0  0  0  0  0  0  0  0  0
    1.7876    2.4532   -0.4380 C   0  0  0  0  0  0  0  0  0  0  0  0
    0.7935    2.2440    0.7197 C   0  0  0  0  0  0  0  0  0  0  0  0
    0.2996    0.7720    0.8401 C   0  0  0  0  0  0  0  0  0  0  0  0
   -1.0618    0.6240    1.4239 N   0  0  0  0  0  0  0  0  0  0  0  0
   -1.1167    1.1127    2.8178 C   0  0  0  0  0  0  0  0  0  0  0  0
   -2.4124    0.6511    3.4913 C   0  0  0  0  0  0  0  0  0  0  0  0
   -3.6399    1.1147    2.6973 C   0  0  0  0  0  0  0  0  0  0  0  0
   -3.5253    0.7564    1.2001 C   0  0  0  0  0  0  0  0  0  0  0  0
   -2.1662    1.2003    0.6218 C   0  0  0  0  0  0  0  0  0  0  0  0
   -3.7974   -0.7054    0.9370 C   0  0  0  0  0  0  0  0  0  0  0  0
   -3.0961   -1.6540    1.3821 O   0  0  0  0  0  0  0  0  0  0  0  0
   -4.9451   -0.9086    0.1143 N   0  0  0  0  0  0  0  0  0  0  0  0
   -5.6833   -2.1751    0.0686 C   0  0  0  0  0  0  0  0  0  0  0  0
   -6.4564   -2.3334   -1.2438 C   0  0  0  0  0  0  0  0  0  0  0  0
   -7.8309   -1.6400   -1.2289 C   0  0  0  0  0  0  0  0  0  0  0  0
   -7.8379   -0.2170   -0.6444 C   0  0  0  0  0  0  0  0  0  0  0  0
   -6.6219    0.6110   -1.0653 C   0  0  0  0  0  0  0  0  0  0  0  0
   -5.4871    0.3511   -0.1767 N   0  0  0  0  0  0  0  0  0  0  0  0
   -4.6679    1.3498    0.4238 C   0  0  0  0  0  0  0  0  0  0  0  0
   -4.8854    2.5862    0.3076 O   0  0  0  0  0  0  0  0  0  0  0  0
    0.4434    0.0139   -0.4947 C   0  0  0  0  0  0  0  0  0  0  0  0
    1.9246   -0.0447   -0.8969 C   0  0  0  0  0  0  0  0  0  0  0  0
    7.7626   -1.7083    4.9387 H   0  0  0  0  0  0  0  0  0  0  0  0
    8.9634   -1.5760    3.5957 H   0  0  0  0  0  0  0  0  0  0  0  0
    7.8176   -2.9814    3.6579 H   0  0  0  0  0  0  0  0  0  0  0  0
    6.2554   -0.5610    3.5610 H   0  0  0  0  0  0  0  0  0  0  0  0
    5.3120    0.1366    1.4553 H   0  0  0  0  0  0  0  0  0  0  0  0
    6.5471   -2.3647   -4.4895 H   0  0  0  0  0  0  0  0  0  0  0  0
    5.1918   -1.2853   -6.2838 H   0  0  0  0  0  0  0  0  0  0  0  0
    3.6475    0.5799   -5.7285 H   0  0  0  0  0  0  0  0  0  0  0  0
    3.4331    1.3799   -3.3898 H   0  0  0  0  0  0  0  0  0  0  0  0
    2.4175    3.3435   -0.2259 H   0  0  0  0  0  0  0  0  0  0  0  0
    1.2212    2.6790   -1.3675 H   0  0  0  0  0  0  0  0  0  0  0  0
    1.2892    2.5305    1.6719 H   0  0  0  0  0  0  0  0  0  0  0  0
   -0.0429    2.9522    0.5722 H   0  0  0  0  0  0  0  0  0  0  0  0
    1.0070    0.2582    1.5327 H   0  0  0  0  0  0  0  0  0  0  0  0
   -0.2657    0.7038    3.4057 H   0  0  0  0  0  0  0  0  0  0  0  0
   -1.0555    2.2242    2.8517 H   0  0  0  0  0  0  0  0  0  0  0  0
   -2.4120   -0.4557    3.5796 H   0  0  0  0  0  0  0  0  0  0  0  0
   -2.4613    1.0700    4.5191 H   0  0  0  0  0  0  0  0  0  0  0  0
   -3.7278    2.2187    2.8051 H   0  0  0  0  0  0  0  0  0  0  0  0
   -4.5562    0.6620    3.1359 H   0  0  0  0  0  0  0  0  0  0  0  0
   -2.1249    2.3110    0.6275 H   0  0  0  0  0  0  0  0  0  0  0  0
   -2.1109    0.8625   -0.4332 H   0  0  0  0  0  0  0  0  0  0  0  0
   -6.3666   -2.2459    0.9425 H   0  0  0  0  0  0  0  0  0  0  0  0
   -4.9605   -3.0164    0.1415 H   0  0  0  0  0  0  0  0  0  0  0  0
   -5.8417   -1.9575   -2.0907 H   0  0  0  0  0  0  0  0  0  0  0  0
   -6.6235   -3.4164   -1.4302 H   0  0  0  0  0  0  0  0  0  0  0  0
   -8.2105   -1.6024   -2.2734 H   0  0  0  0  0  0  0  0  0  0  0  0
   -8.5446   -2.2608   -0.6451 H   0  0  0  0  0  0  0  0  0  0  0  0
   -8.7615    0.2949   -0.9919 H   0  0  0  0  0  0  0  0  0  0  0  0
   -7.8939   -0.2616    0.4654 H   0  0  0  0  0  0  0  0  0  0  0  0
   -6.3365    0.3917   -2.1159 H   0  0  0  0  0  0  0  0  0  0  0  0
   -6.8934    1.6870   -1.0191 H   0  0  0  0  0  0  0  0  0  0  0  0
    0.0416   -1.0193   -0.3987 H   0  0  0  0  0  0  0  0  0  0  0  0
   -0.1151    0.5334   -1.3025 H   0  0  0  0  0  0  0  0  0  0  0  0
    2.4218   -0.8318   -0.2869 H   0  0  0  0  0  0  0  0  0  0  0  0
    2.0043   -0.3305   -1.9671 H   0  0  0  0  0  0  0  0  0  0  0  0
  1  2  1  0
  2  3  1  0
  3  4  2  0
  3  5  1  0
  5  6  1  0
  6  7  1  0
  7  8  1  0
  8  9  2  0
  9 10  1  0
 10 11  2  0
 11 12  1  0
 12 13  2  0
 13 14  1  0
 14 15  1  0
 15 16  2  0
 15 17  1  0
 17 18  1  0
 18 19  1  0
 19 20  1  0
 20 21  1  0
 21 22  1  0
 22 23  1  0
 23 24  1  0
 24 25  1  0
 25 26  1  0
 25 27  1  0
 27 28  2  0
 27 29  1  0
 29 30  1  0
 30 31  1  0
 31 32  1  0
 32 33  1  0
 33 34  1  0
 34 35  1  0
 35 36  1  0
 36 37  2  0
 20 38  1  0
 38 39  1  0
 14  6  2  0
 39 17  1  0
 13  8  1  0
 26 21  1  0
 35 29  1  0
 36 25  1  0
  1 40  1  0
  1 41  1  0
  1 42  1  0
  2 43  1  0
  5 44  1  0
  9 45  1  0
 10 46  1  0
 11 47  1  0
 12 48  1  0
 18 49  1  0
 18 50  1  0
 19 51  1  0
 19 52  1  0
 20 53  1  0
 22 54  1  0
 22 55  1  0
 23 56  1  0
 23 57  1  0
 24 58  1  0
 24 59  1  0
 26 60  1  0
 26 61  1  0
 30 62  1  0
 30 63  1  0
 31 64  1  0
 31 65  1  0
 32 66  1  0
 32 67  1  0
 33 68  1  0
 33 69  1  0
 34 70  1  0
 34 71  1  0
 38 72  1  0
 38 73  1  0
 39 74  1  0
 39 75  1  0
M  END
$$$$

     RDKit          3D

 61 66  0  0  0  0  0  0  0  0999 V2000
   -6.2820   -5.9842    1.0209 N   0  0  0  0  0  0  0  0  0  0  0  0
   -4.5574   -5.8637    1.0373 S   0  0  0  0  0  6  0  0  0  0  0  0
   -3.9746   -6.8107    0.0268 O   0  0  0  0  0  0  0  0  0  0  0  0
   -4.0576   -6.2289    2.4082 O   0  0  0  0  0  0  0  0  0  0  0  0
   -4.0793   -4.2166    0.6416 C   0  0  0  0  0  0  0  0  0  0  0  0
   -3.0058   -3.6094    1.2962 C   0  0  0  0  0  0  0  0  0  0  0  0
   -2.6415   -2.2967    0.9796 C   0  0  0  0  0  0  0  0  0  0  0  0
   -3.3334   -1.5803   -0.0094 C   0  0  0  0  0  0  0  0  0  0  0  0
   -2.9574   -0.1815   -0.3262 C   0  0  0  0  0  0  0  0  0  0  0  0
   -3.9383    0.8272   -0.3799 C   0  0  0  0  0  0  0  0  0  0  0  0
   -3.5712    2.1217   -0.6082 N   0  0  0  0  0  0  0  0  0  0  0  0
   -2.2695    2.4846   -0.7988 C   0  0  0  0  0  0  0  0  0  0  0  0
   -1.9269    3.8679   -1.0010 N   0  0  0  0  0  0  0  0  0  0  0  0
   -0.9887    4.5164   -0.0764 C   0  0  0  0  0  0  0  0  0  0  0  0
   -0.4442    5.8061   -0.6979 C   0  0  0  0  0  0  0  0  0  0  0  0
   -1.4978    6.6365   -1.1476 O   0  0  0  0  0  0  0  0  0  0  0  0
   -2.2015    5.9955   -2.1935 C   0  0  0  0  0  0  0  0  0  0  0  0
   -2.8938    4.7309   -1.6875 C   0  0  0  0  0  0  0  0  0  0  0  0
   -1.3045    1.4706   -0.7830 C   0  0  0  0  0  0  0  0  0  0  0  0
    0.0205    1.6225   -0.9879 N   0  0  0  0  0  0  0  0  0  0  0  0
    0.4976    0.3611   -0.8845 C   0  0  0  0  0  0  0  0  0  0  0  0
    1.9515    0.0243   -0.8826 C   0  0  0  0  0  0  0  0  0  0  0  0
    2.4311    0.0533    0.4566 O   0  0  0  0  0  0  0  0  0  0  0  0
    3.7543   -0.2372    0.8013 C   0  0  0  0  0  0  0  0  0  0  0  0
    4.1450   -0.1633    2.1420 C   0  0  0  0  0  0  0  0  0  0  0  0
    5.4637   -0.4547    2.4972 C   0  0  0  0  0  0  0  0  0  0  0  0
    6.3845   -0.8200    1.5089 C   0  0  0  0  0  0  0  0  0  0  0  0
    7.7172   -1.1209    1.8287 C   0  0  0  0  0  0  0  0  0  0  0  0
    8.6154   -1.4747    0.8143 C   0  0  0  0  0  0  0  0  0  0  0  0
    8.1877   -1.5346   -0.5162 C   0  0  0  0  0  0  0  0  0  0  0  0
    6.8588   -1.2426   -0.8416 C   0  0  0  0  0  0  0  0  0  0  0  0
    5.9539   -0.8828    0.1640 C   0  0  0  0  0  0  0  0  0  0  0  0
    4.6623   -0.5927   -0.1499 N   0  0  0  0  0  0  0  0  0  0  0  0
   -0.5308   -0.5237   -0.6164 C   0  0  0  0  0  0  0  0  0  0  0  0
   -1.6650    0.1958   -0.5508 N   0  0  0  0  0  0  0  0  0  0  0  0
   -4.4134   -2.1922   -0.6592 C   0  0  0  0  0  0  0  0  0  0  0  0
   -4.7800   -3.5035   -0.3408 C   0  0  0  0  0  0  0  0  0  0  0  0
   -6.6279   -5.4499    1.8462 H   0  0  0  0  0  0  0  0  0  0  0  0
   -6.5149   -6.9856    1.2038 H   0  0  0  0  0  0  0  0  0  0  0  0
   -2.4611   -4.1417    2.0664 H   0  0  0  0  0  0  0  0  0  0  0  0
   -1.8322   -1.8338    1.5271 H   0  0  0  0  0  0  0  0  0  0  0  0
   -4.9818    0.5947   -0.2126 H   0  0  0  0  0  0  0  0  0  0  0  0
   -1.5216    4.7611    0.8695 H   0  0  0  0  0  0  0  0  0  0  0  0
   -0.1369    3.8511    0.1789 H   0  0  0  0  0  0  0  0  0  0  0  0
    0.2720    5.5856   -1.5243 H   0  0  0  0  0  0  0  0  0  0  0  0
    0.1234    6.3523    0.0872 H   0  0  0  0  0  0  0  0  0  0  0  0
   -1.5249    5.7561   -3.0435 H   0  0  0  0  0  0  0  0  0  0  0  0
   -2.9750    6.6936   -2.5798 H   0  0  0  0  0  0  0  0  0  0  0  0
   -3.7004    5.0116   -0.9794 H   0  0  0  0  0  0  0  0  0  0  0  0
   -3.3468    4.1945   -2.5487 H   0  0  0  0  0  0  0  0  0  0  0  0
    2.5048    0.7652   -1.4945 H   0  0  0  0  0  0  0  0  0  0  0  0
    2.1025   -0.9861   -1.3188 H   0  0  0  0  0  0  0  0  0  0  0  0
    3.4305    0.1187    2.9039 H   0  0  0  0  0  0  0  0  0  0  0  0
    5.7620   -0.3947    3.5373 H   0  0  0  0  0  0  0  0  0  0  0  0
    8.0624   -1.0802    2.8556 H   0  0  0  0  0  0  0  0  0  0  0  0
    9.6457   -1.7010    1.0586 H   0  0  0  0  0  0  0  0  0  0  0  0
    8.8887   -1.8068   -1.2972 H   0  0  0  0  0  0  0  0  0  0  0  0
    6.5375   -1.2960   -1.8747 H   0  0  0  0  0  0  0  0  0  0  0  0
   -0.4460   -1.5921   -0.4753 H   0  0  0  0  0  0  0  0  0  0  0  0
   -4.9745   -1.6566   -1.4143 H   0  0  0  0  0  0  0  0  0  0  0  0
   -5.6145   -3.9592   -0.8552 H   0  0  0  0  0  0  0  0  0  0  0  0
  1  2  1  0
  2  3  2  0
  2  4  2  0
  2  5  1  0
  5  6  2  0
  6  7  1  0
  7  8  2  0
  8  9  1  0
  9 10  2  0
 10 11  1  0
 11 12  2  0
 12 13  1  0
 13 14  1  0
 14 15  1  0
 15 16  1  0
 16 17  1  0
 17 18  1  0
 12 19  1  0
 19 20  2  0
 20 21  1  0
 21 22  1  0
 22 23  1  0
 23 24  1  0
 24 25  2  0
 25 26  1  0
 26 27  2  0
 27 28  1  0
 28 29  2  0
 29 30  1  0
 30 31  2  0
 31 32  1  0
 32 33  2  0
 21 34  2  0
 34 35  1  0
  8 36  1  0
 36 37  2  0
 37  5  1  0
 35  9  1  0
 18 13  1  0
 35 19  1  0
 33 24  1  0
 32 27  1  0
  1 38  1  0
  1 39  1  0
  6 40  1  0
  7 41  1  0
 10 42  1  0
 14 43  1  0
 14 44  1  0
 15 45  1  0
 15 46  1  0
 17 47  1  0
 17 48  1  0
 18 49  1  0
 18 50  1  0
 22 51  1  0
 22 52  1  0
 25 53  1  0
 26 54  1  0
 28 55  1  0
 29 56  1  0
 30 57  1  0
 31 58  1  0
 34 59  1  0
 36 60  1  0
 37 61  1  0
M  END
$$$$

     RDKit          3D

 72 77  0  0  0  0  0  0  0  0999 V2000
    7.8642   -2.6047   -4.0842 C   0  0  0  0  0  0  0  0  0  0  0  0
    6.9942   -3.4664   -3.1744 C   0  0  0  0  0  0  0  0  0  0  0  0
    5.9225   -2.6704   -2.5768 N   0  0  0  0  0  0  0  0  0  0  0  0
    6.1579   -1.7055   -1.5412 C   0  0  0  0  0  0  0  0  0  0  0  0
    7.3191   -1.5591   -1.0725 O   0  0  0  0  0  0  0  0  0  0  0  0
    5.0676   -0.9032   -1.0611 N   0  0  0  0  0  0  0  0  0  0  0  0
    5.1664    0.0435    0.0186 C   0  0  0  0  0  0  0  0  0  0  0  0
    6.3902    0.0805    1.1903 S   0  0  0  0  0  0  0  0  0  0  0  0
    5.7261    1.3508    2.0607 C   0  0  0  0  0  0  0  0  0  0  0  0
    6.2374    1.9630    3.2026 C   0  0  0  0  0  0  0  0  0  0  0  0
    5.5260    3.0382    3.7539 C   0  0  0  0  0  0  0  0  0  0  0  0
    4.3325    3.4825    3.1547 C   0  0  0  0  0  0  0  0  0  0  0  0
    3.8348    2.8502    2.0033 C   0  0  0  0  0  0  0  0  0  0  0  0
    4.5401    1.7639    1.4651 C   0  0  0  0  0  0  0  0  0  0  0  0
    4.2047    1.0189    0.3172 C   0  0  0  0  0  0  0  0  0  0  0  0
    2.9926    1.2485   -0.4949 C   0  0  0  0  0  0  0  0  0  0  0  0
    3.1216    1.4354   -1.7359 O   0  0  0  0  0  0  0  0  0  0  0  0
    1.6790    1.2572    0.1000 N   0  0  0  0  0  0  0  0  0  0  0  0
    1.3995    0.5369    1.3473 C   0  0  0  0  0  0  0  0  0  0  0  0
    0.0881   -0.2426    1.2214 C   0  0  0  0  0  0  0  0  0  0  0  0
   -1.0835    0.6693    0.7816 C   0  0  0  0  0  0  0  0  0  0  0  0
   -2.3335   -0.1506    0.7086 N   0  0  0  0  0  0  0  0  0  0  0  0
   -2.9483   -0.2926    2.0496 C   0  0  0  0  0  0  0  0  0  0  0  0
   -3.9692   -1.4428    2.0649 C   0  0  0  0  0  0  0  0  0  0  0  0
   -4.5489   -1.7357    0.6729 C   0  0  0  0  0  0  0  0  0  0  0  0
   -4.6881   -0.4569   -0.1780 C   0  0  0  0  0  0  0  0  0  0  0  0
   -3.3573    0.3580   -0.2426 C   0  0  0  0  0  0  0  0  0  0  0  0
   -5.2033   -0.8044   -1.5549 C   0  0  0  0  0  0  0  0  0  0  0  0
   -4.6334   -1.5934   -2.3573 O   0  0  0  0  0  0  0  0  0  0  0  0
   -6.4578   -0.1924   -1.8292 N   0  0  0  0  0  0  0  0  0  0  0  0
   -7.5825   -0.8344   -2.4777 C   0  0  0  0  0  0  0  0  0  0  0  0
   -8.8120   -0.3656   -1.6755 C   0  0  0  0  0  0  0  0  0  0  0  0
   -8.2757    0.4999   -0.5184 C   0  0  0  0  0  0  0  0  0  0  0  0
   -6.8433    0.5408   -0.7247 N   0  0  0  0  0  0  0  0  0  0  0  0
   -5.8525    0.3908    0.2860 C   0  0  0  0  0  0  0  0  0  0  0  0
   -5.9643    0.8999    1.4335 O   0  0  0  0  0  0  0  0  0  0  0  0
   -0.6879    1.3434   -0.5635 C   0  0  0  0  0  0  0  0  0  0  0  0
    0.6247    2.1228   -0.4369 C   0  0  0  0  0  0  0  0  0  0  0  0
    7.2383   -2.1244   -4.8669 H   0  0  0  0  0  0  0  0  0  0  0  0
    8.6289   -3.2404   -4.5795 H   0  0  0  0  0  0  0  0  0  0  0  0
    8.3838   -1.8180   -3.4975 H   0  0  0  0  0  0  0  0  0  0  0  0
    6.5485   -4.2841   -3.7810 H   0  0  0  0  0  0  0  0  0  0  0  0
    7.6150   -3.9284   -2.3766 H   0  0  0  0  0  0  0  0  0  0  0  0
    4.9416   -2.8441   -2.8919 H   0  0  0  0  0  0  0  0  0  0  0  0
    4.1498   -1.0005   -1.5501 H   0  0  0  0  0  0  0  0  0  0  0  0
    7.1624    1.6232    3.6497 H   0  0  0  0  0  0  0  0  0  0  0  0
    5.9002    3.5337    4.6398 H   0  0  0  0  0  0  0  0  0  0  0  0
    3.7975    4.3204    3.5821 H   0  0  0  0  0  0  0  0  0  0  0  0
    2.9247    3.2129    1.5440 H   0  0  0  0  0  0  0  0  0  0  0  0
    2.2119   -0.1845    1.5813 H   0  0  0  0  0  0  0  0  0  0  0  0
    1.3241    1.2621    2.1853 H   0  0  0  0  0  0  0  0  0  0  0  0
    0.2195   -1.0567    0.4753 H   0  0  0  0  0  0  0  0  0  0  0  0
   -0.1166   -0.7217    2.1990 H   0  0  0  0  0  0  0  0  0  0  0  0
   -1.2096    1.4834    1.5336 H   0  0  0  0  0  0  0  0  0  0  0  0
   -3.4454    0.6588    2.3452 H   0  0  0  0  0  0  0  0  0  0  0  0
   -2.1928   -0.5008    2.8345 H   0  0  0  0  0  0  0  0  0  0  0  0
   -4.7933   -1.1907    2.7674 H   0  0  0  0  0  0  0  0  0  0  0  0
   -3.4826   -2.3666    2.4479 H   0  0  0  0  0  0  0  0  0  0  0  0
   -3.8609   -2.4383    0.1508 H   0  0  0  0  0  0  0  0  0  0  0  0
   -5.5301   -2.2509    0.7785 H   0  0  0  0  0  0  0  0  0  0  0  0
   -3.5556    1.4369   -0.0488 H   0  0  0  0  0  0  0  0  0  0  0  0
   -2.9522    0.2784   -1.2748 H   0  0  0  0  0  0  0  0  0  0  0  0
   -7.4844   -1.9413   -2.4196 H   0  0  0  0  0  0  0  0  0  0  0  0
   -7.6434   -0.5113   -3.5395 H   0  0  0  0  0  0  0  0  0  0  0  0
   -9.4866    0.2355   -2.3232 H   0  0  0  0  0  0  0  0  0  0  0  0
   -9.3740   -1.2389   -1.2800 H   0  0  0  0  0  0  0  0  0  0  0  0
   -8.6897    1.5284   -0.5729 H   0  0  0  0  0  0  0  0  0  0  0  0
   -8.5182    0.0408    0.4648 H   0  0  0  0  0  0  0  0  0  0  0  0
   -0.5745    0.5707   -1.3564 H   0  0  0  0  0  0  0  0  0  0  0  0
   -1.4651    2.0696   -0.8826 H   0  0  0  0  0  0  0  0  0  0  0  0
    0.4809    2.9876    0.2472 H   0  0  0  0  0  0  0  0  0  0  0  0
    0.9003    2.5252   -1.4362 H   0  0  0  0  0  0  0  0  0  0  0  0
  1  2  1  0
  2  3  1  0
  3  4  1  0
  4  5  2  0
  4  6  1  0
  6  7  1  0
  7  8  1  0
  8  9  1  0
  9 10  2  0
 10 11  1  0
 11 12  2  0
 12 13  1  0
 13 14  2  0
 14 15  1  0
 15 16  1  0
 16 17  2  0
 16 18  1  0
 18 19  1  0
 19 20  1  0
 20 21  1  0
 21 22  1  0
 22 23  1  0
 23 24  1  0
 24 25  1  0
 25 26  1  0
 26 27  1  0
 26 28  1  0
 28 29  2  0
 28 30  1  0
 30 31  1  0
 31 32  1  0
 32 33  1  0
 33 34  1  0
 34 35  1  0
 35 36  2  0
 21 37  1  0
 37 38  1  0
 15  7  2  0
 38 18  1  0
 14  9  1  0
 27 22  1  0
 34 30  1  0
 35 26  1  0
  1 39  1  0
  1 40  1  0
  1 41  1  0
  2 42  1  0
  2 43  1  0
  3 44  1  0
  6 45  1  0
 10 46  1  0
 11 47  1  0
 12 48  1  0
 13 49  1  0
 19 50  1  0
 19 51  1  0
 20 52  1  0
 20 53  1  0
 21 54  1  0
 23 55  1  0
 23 56  1  0
 24 57  1  0
 24 58  1  0
 25 59  1  0
 25 60  1  0
 27 61  1  0
 27 62  1  0
 31 63  1  0
 31 64  1  0
 32 65  1  0
 32 66  1  0
 33 67  1  0
 33 68  1  0
 37 69  1  0
 37 70  1  0
 38 71  1  0
 38 72  1  0
M  END
$$$$

     RDKit          3D

 63 68  0  0  0  0  0  0  0  0999 V2000
    5.1494    6.0454   -1.6542 O   0  0  0  0  0  0  0  0  0  0  0  0
    6.1058    5.2557   -1.8780 C   0  0  0  0  0  0  0  0  0  0  0  0
    6.4000    4.8732   -3.1834 O   0  0  0  0  0  0  0  0  0  0  0  0
    6.9205    4.7256   -0.7418 C   0  0  0  0  0  0  0  0  0  0  0  0
    6.0496    4.1822    0.2986 N   0  0  0  0  0  0  0  0  0  0  0  0
    5.2660    2.9940    0.1113 C   0  0  0  0  0  0  0  0  0  0  0  0
    4.3158    2.6221    1.0640 C   0  0  0  0  0  0  0  0  0  0  0  0
    3.5460    1.4766    0.8580 C   0  0  0  0  0  0  0  0  0  0  0  0
    3.7147    0.7120   -0.3041 C   0  0  0  0  0  0  0  0  0  0  0  0
    2.9084   -0.5125   -0.5277 C   0  0  0  0  0  0  0  0  0  0  0  0
    3.5258   -1.7254   -0.8873 C   0  0  0  0  0  0  0  0  0  0  0  0
    2.7711   -2.8560   -1.0245 N   0  0  0  0  0  0  0  0  0  0  0  0
    1.4194   -2.8590   -0.8308 C   0  0  0  0  0  0  0  0  0  0  0  0
    0.6685   -4.0766   -0.9922 N   0  0  0  0  0  0  0  0  0  0  0  0
   -0.1601   -4.5740    0.1133 C   0  0  0  0  0  0  0  0  0  0  0  0
   -1.1980   -5.5736   -0.4153 C   0  0  0  0  0  0  0  0  0  0  0  0
   -0.5799   -6.5797   -1.1996 O   0  0  0  0  0  0  0  0  0  0  0  0
   -0.0120   -5.9993   -2.3574 C   0  0  0  0  0  0  0  0  0  0  0  0
    1.1327   -5.0565   -1.9796 C   0  0  0  0  0  0  0  0  0  0  0  0
    0.8090   -1.6408   -0.5093 C   0  0  0  0  0  0  0  0  0  0  0  0
   -0.5127   -1.4250   -0.3334 N   0  0  0  0  0  0  0  0  0  0  0  0
   -0.5774   -0.0945   -0.0863 C   0  0  0  0  0  0  0  0  0  0  0  0
   -1.8217    0.6375    0.3058 C   0  0  0  0  0  0  0  0  0  0  0  0
   -2.9774   -0.1406    0.0126 O   0  0  0  0  0  0  0  0  0  0  0  0
   -4.2568    0.2349    0.4361 C   0  0  0  0  0  0  0  0  0  0  0  0
   -5.3584   -0.5516    0.0867 C   0  0  0  0  0  0  0  0  0  0  0  0
   -6.6316   -0.1970    0.5352 C   0  0  0  0  0  0  0  0  0  0  0  0
   -6.7961    0.9430    1.3329 C   0  0  0  0  0  0  0  0  0  0  0  0
   -8.0563    1.3183    1.8230 C   0  0  0  0  0  0  0  0  0  0  0  0
   -8.1829    2.4566    2.6234 C   0  0  0  0  0  0  0  0  0  0  0  0
   -7.0564    3.2253    2.9369 C   0  0  0  0  0  0  0  0  0  0  0  0
   -5.7978    2.8614    2.4498 C   0  0  0  0  0  0  0  0  0  0  0  0
   -5.6615    1.7209    1.6532 C   0  0  0  0  0  0  0  0  0  0  0  0
   -4.4363    1.3495    1.1992 N   0  0  0  0  0  0  0  0  0  0  0  0
    0.6858    0.4646   -0.1107 C   0  0  0  0  0  0  0  0  0  0  0  0
    1.5530   -0.5276   -0.3745 N   0  0  0  0  0  0  0  0  0  0  0  0
    4.6955    1.1061   -1.2216 C   0  0  0  0  0  0  0  0  0  0  0  0
    5.4332    2.2269   -0.9995 N   0  0  0  0  0  0  0  0  0  0  0  0
    5.8553    5.2205   -3.9694 H   0  0  0  0  0  0  0  0  0  0  0  0
    7.5240    5.5592   -0.3223 H   0  0  0  0  0  0  0  0  0  0  0  0
    7.6191    3.9407   -1.1006 H   0  0  0  0  0  0  0  0  0  0  0  0
    5.9516    4.7191    1.1899 H   0  0  0  0  0  0  0  0  0  0  0  0
    4.1756    3.2118    1.9592 H   0  0  0  0  0  0  0  0  0  0  0  0
    2.8277    1.1799    1.6107 H   0  0  0  0  0  0  0  0  0  0  0  0
    4.5988   -1.7798   -1.0304 H   0  0  0  0  0  0  0  0  0  0  0  0
    0.4929   -5.0743    0.8582 H   0  0  0  0  0  0  0  0  0  0  0  0
   -0.6912   -3.7464    0.6289 H   0  0  0  0  0  0  0  0  0  0  0  0
   -1.7072   -6.0576    0.4442 H   0  0  0  0  0  0  0  0  0  0  0  0
   -1.9897   -5.0375   -0.9948 H   0  0  0  0  0  0  0  0  0  0  0  0
    0.3942   -6.8136   -2.9954 H   0  0  0  0  0  0  0  0  0  0  0  0
   -0.7811   -5.4616   -2.9592 H   0  0  0  0  0  0  0  0  0  0  0  0
    1.9678   -5.6477   -1.5461 H   0  0  0  0  0  0  0  0  0  0  0  0
    1.5000   -4.5390   -2.8933 H   0  0  0  0  0  0  0  0  0  0  0  0
   -1.8750    1.6053   -0.2420 H   0  0  0  0  0  0  0  0  0  0  0  0
   -1.7716    0.8425    1.3977 H   0  0  0  0  0  0  0  0  0  0  0  0
   -5.2264   -1.4345   -0.5225 H   0  0  0  0  0  0  0  0  0  0  0  0
   -7.4811   -0.8145    0.2674 H   0  0  0  0  0  0  0  0  0  0  0  0
   -8.9366    0.7327    1.5896 H   0  0  0  0  0  0  0  0  0  0  0  0
   -9.1552    2.7456    2.9981 H   0  0  0  0  0  0  0  0  0  0  0  0
   -7.1595    4.1067    3.5548 H   0  0  0  0  0  0  0  0  0  0  0  0
   -4.9319    3.4632    2.6957 H   0  0  0  0  0  0  0  0  0  0  0  0
    0.9373    1.5048    0.0509 H   0  0  0  0  0  0  0  0  0  0  0  0
    4.8652    0.5324   -2.1199 H   0  0  0  0  0  0  0  0  0  0  0  0
  1  2  2  0
  2  3  1  0
  2  4  1  0
  4  5  1  0
  5  6  1  0
  6  7  2  0
  7  8  1  0
  8  9  2  0
  9 10  1  0
 10 11  2  0
 11 12  1  0
 12 13  2  0
 13 14  1  0
 14 15  1  0
 15 16  1  0
 16 17  1  0
 17 18  1  0
 18 19  1  0
 13 20  1  0
 20 21  2  0
 21 22  1  0
 22 23  1  0
 23 24  1  0
 24 25  1  0
 25 26  2  0
 26 27  1  0
 27 28  2  0
 28 29  1  0
 29 30  2  0
 30 31  1  0
 31 32  2  0
 32 33  1  0
 33 34  2  0
 22 35  2  0
 35 36  1  0
  9 37  1  0
 37 38  2  0
 38  6  1  0
 36 10  1  0
 19 14  1  0
 36 20  1  0
 34 25  1  0
 33 28  1  0
  3 39  1  0
  4 40  1  0
  4 41  1  0
  5 42  1  0
  7 43  1  0
  8 44  1  0
 11 45  1  0
 15 46  1  0
 15 47  1  0
 16 48  1  0
 16 49  1  0
 18 50  1  0
 18 51  1  0
 19 52  1  0
 19 53  1  0
 23 54  1  0
 23 55  1  0
 26 56  1  0
 27 57  1  0
 29 58  1  0
 30 59  1  0
 31 60  1  0
 32 61  1  0
 35 62  1  0
 37 63  1  0
M  END
$$$$

     RDKit          3D

 76 81  0  0  0  0  0  0  0  0999 V2000
    1.5182   -4.4637    1.5020 C   0  0  0  0  0  0  0  0  0  0  0  0
    2.7258   -4.0804    0.7765 N   0  0  0  0  0  0  0  0  0  0  0  0
    3.2174   -2.7346    0.7204 C   0  0  0  0  0  0  0  0  0  0  0  0
    2.6321   -1.8171    1.3574 O   0  0  0  0  0  0  0  0  0  0  0  0
    4.4020   -2.4456   -0.0335 N   0  0  0  0  0  0  0  0  0  0  0  0
    4.8643   -1.1143   -0.2954 C   0  0  0  0  0  0  0  0  0  0  0  0
    6.4818   -0.6510   -0.1695 S   0  0  0  0  0  0  0  0  0  0  0  0
    6.2165    0.9417   -0.6384 C   0  0  0  0  0  0  0  0  0  0  0  0
    7.1635    1.9563   -0.7927 C   0  0  0  0  0  0  0  0  0  0  0  0
    8.5091    1.6958   -0.4941 O   0  0  0  0  0  0  0  0  0  0  0  0
    9.5592    2.6463   -0.6354 C   0  0  0  0  0  0  0  0  0  0  0  0
    6.7111    3.2105   -1.2558 C   0  0  0  0  0  0  0  0  0  0  0  0
    5.3535    3.4092   -1.5620 C   0  0  0  0  0  0  0  0  0  0  0  0
    4.4264    2.3696   -1.4040 C   0  0  0  0  0  0  0  0  0  0  0  0
    4.8674    1.1301   -0.9209 C   0  0  0  0  0  0  0  0  0  0  0  0
    4.0885   -0.0285   -0.7276 C   0  0  0  0  0  0  0  0  0  0  0  0
    2.6524   -0.1226   -1.0580 C   0  0  0  0  0  0  0  0  0  0  0  0
    2.2639   -1.0457   -1.8244 O   0  0  0  0  0  0  0  0  0  0  0  0
    1.6971    0.8154   -0.5284 N   0  0  0  0  0  0  0  0  0  0  0  0
    1.9181    1.4780    0.7661 C   0  0  0  0  0  0  0  0  0  0  0  0
    0.6285    1.4385    1.5987 C   0  0  0  0  0  0  0  0  0  0  0  0
   -0.6571    1.9097    0.8371 C   0  0  0  0  0  0  0  0  0  0  0  0
   -1.7430    0.8912    0.9985 N   0  0  0  0  0  0  0  0  0  0  0  0
   -2.1752    0.7738    2.4258 C   0  0  0  0  0  0  0  0  0  0  0  0
   -3.5895    1.3043    2.6907 C   0  0  0  0  0  0  0  0  0  0  0  0
   -4.6256    0.5388    1.8624 C   0  0  0  0  0  0  0  0  0  0  0  0
   -4.1140    0.2256    0.4308 C   0  0  0  0  0  0  0  0  0  0  0  0
   -2.8763    1.0688    0.0509 C   0  0  0  0  0  0  0  0  0  0  0  0
   -3.8594   -1.2537    0.2312 C   0  0  0  0  0  0  0  0  0  0  0  0
   -3.0319   -1.9358    0.8929 O   0  0  0  0  0  0  0  0  0  0  0  0
   -4.6870   -1.8106   -0.7862 N   0  0  0  0  0  0  0  0  0  0  0  0
   -5.1204   -3.1991   -0.8608 C   0  0  0  0  0  0  0  0  0  0  0  0
   -6.6199   -3.2467   -0.5612 C   0  0  0  0  0  0  0  0  0  0  0  0
   -7.4498   -2.3417   -1.5059 C   0  0  0  0  0  0  0  0  0  0  0  0
   -6.7113   -1.0929   -2.0516 C   0  0  0  0  0  0  0  0  0  0  0  0
   -5.5077   -0.8000   -1.2769 N   0  0  0  0  0  0  0  0  0  0  0  0
   -5.2101    0.4091   -0.5907 C   0  0  0  0  0  0  0  0  0  0  0  0
   -5.7935    1.5016   -0.8293 O   0  0  0  0  0  0  0  0  0  0  0  0
   -0.3170    2.2438   -0.6455 C   0  0  0  0  0  0  0  0  0  0  0  0
    0.4839    1.1141   -1.3013 C   0  0  0  0  0  0  0  0  0  0  0  0
    1.0374   -3.5919    1.9921 H   0  0  0  0  0  0  0  0  0  0  0  0
    1.7785   -5.2104    2.2795 H   0  0  0  0  0  0  0  0  0  0  0  0
    0.7932   -4.9171    0.7946 H   0  0  0  0  0  0  0  0  0  0  0  0
    3.2460   -4.8278    0.2647 H   0  0  0  0  0  0  0  0  0  0  0  0
    5.0398   -3.2370   -0.2723 H   0  0  0  0  0  0  0  0  0  0  0  0
    9.6394    2.9715   -1.6942 H   0  0  0  0  0  0  0  0  0  0  0  0
   10.5176    2.1745   -0.3357 H   0  0  0  0  0  0  0  0  0  0  0  0
    9.3706    3.5231    0.0198 H   0  0  0  0  0  0  0  0  0  0  0  0
    7.3988    4.0325   -1.3945 H   0  0  0  0  0  0  0  0  0  0  0  0
    5.0218    4.3712   -1.9296 H   0  0  0  0  0  0  0  0  0  0  0  0
    3.3914    2.5355   -1.6675 H   0  0  0  0  0  0  0  0  0  0  0  0
    2.7271    0.9769    1.3415 H   0  0  0  0  0  0  0  0  0  0  0  0
    2.2265    2.5333    0.5994 H   0  0  0  0  0  0  0  0  0  0  0  0
    0.5022    0.3873    1.9434 H   0  0  0  0  0  0  0  0  0  0  0  0
    0.7737    2.0624    2.5079 H   0  0  0  0  0  0  0  0  0  0  0  0
   -1.0020    2.8659    1.2948 H   0  0  0  0  0  0  0  0  0  0  0  0
   -1.4918    1.3065    3.1227 H   0  0  0  0  0  0  0  0  0  0  0  0
   -2.1318   -0.2952    2.7225 H   0  0  0  0  0  0  0  0  0  0  0  0
   -3.6268    2.3868    2.4364 H   0  0  0  0  0  0  0  0  0  0  0  0
   -3.8314    1.2017    3.7712 H   0  0  0  0  0  0  0  0  0  0  0  0
   -4.8956   -0.4001    2.3972 H   0  0  0  0  0  0  0  0  0  0  0  0
   -5.5505    1.1569    1.8293 H   0  0  0  0  0  0  0  0  0  0  0  0
   -2.5577    0.7540   -0.9668 H   0  0  0  0  0  0  0  0  0  0  0  0
   -3.1732    2.1421    0.0088 H   0  0  0  0  0  0  0  0  0  0  0  0
   -4.5644   -3.8274   -0.1322 H   0  0  0  0  0  0  0  0  0  0  0  0
   -4.9309   -3.5882   -1.8844 H   0  0  0  0  0  0  0  0  0  0  0  0
   -6.9799   -4.2951   -0.6385 H   0  0  0  0  0  0  0  0  0  0  0  0
   -6.7774   -2.9140    0.4892 H   0  0  0  0  0  0  0  0  0  0  0  0
   -8.3597   -2.0107   -0.9579 H   0  0  0  0  0  0  0  0  0  0  0  0
   -7.8002   -2.9487   -2.3704 H   0  0  0  0  0  0  0  0  0  0  0  0
   -7.3965   -0.2166   -2.0566 H   0  0  0  0  0  0  0  0  0  0  0  0
   -6.4059   -1.2855   -3.1032 H   0  0  0  0  0  0  0  0  0  0  0  0
   -1.2053    2.4986   -1.2565 H   0  0  0  0  0  0  0  0  0  0  0  0
    0.3017    3.1686   -0.6668 H   0  0  0  0  0  0  0  0  0  0  0  0
    0.7677    1.4273   -2.3289 H   0  0  0  0  0  0  0  0  0  0  0  0
   -0.1445    0.2005   -1.3720 H   0  0  0  0  0  0  0  0  0  0  0  0
  1  2  1  0
  2  3  1  0
  3  4  2  0
  3  5  1  0
  5  6  1  0
  6  7  1  0
  7  8  1  0
  8  9  2  0
  9 10  1  0
 10 11  1  0
  9 12  1  0
 12 13  2  0
 13 14  1  0
 14 15  2  0
 15 16  1  0
 16 17  1  0
 17 18  2  0
 17 19  1  0
 19 20  1  0
 20 21  1  0
 21 22  1  0
 22 23  1  0
 23 24  1  0
 24 25  1  0
 25 26  1  0
 26 27  1  0
 27 28  1  0
 27 29  1  0
 29 30  2  0
 29 31  1  0
 31 32  1  0
 32 33  1  0
 33 34  1  0
 34 35  1  0
 35 36  1  0
 36 37  1  0
 37 38  2  0
 22 39  1  0
 39 40  1  0
 16  6  2  0
 40 19  1  0
 15  8  1  0
 28 23  1  0
 36 31  1  0
 37 27  1  0
  1 41  1  0
  1 42  1  0
  1 43  1  0
  2 44  1  0
  5 45  1  0
 11 46  1  0
 11 47  1  0
 11 48  1  0
 12 49  1  0
 13 50  1  0
 14 51  1  0
 20 52  1  0
 20 53  1  0
 21 54  1  0
 21 55  1  0
 22 56  1  0
 24 57  1  0
 24 58  1  0
 25 59  1  0
 25 60  1  0
 26 61  1  0
 26 62  1  0
 28 63  1  0
 28 64  1  0
 32 65  1  0
 32 66  1  0
 33 67  1  0
 33 68  1  0
 34 69  1  0
 34 70  1  0
 35 71  1  0
 35 72  1  0
 39 73  1  0
 39 74  1  0
 40 75  1  0
 40 76  1  0
M  END
$$$$

     RDKit          3D

 73 78  0  0  0  0  0  0  0  0999 V2000
    7.3888   -2.9375    2.3890 C   0  0  0  0  0  0  0  0  0  0  0  0
    6.0720   -3.4181    2.1607 O   0  0  0  0  0  0  0  0  0  0  0  0
    5.1197   -2.8635    1.2824 C   0  0  0  0  0  0  0  0  0  0  0  0
    3.9457   -3.5981    1.0471 C   0  0  0  0  0  0  0  0  0  0  0  0
    2.9776   -3.1405    0.1418 C   0  0  0  0  0  0  0  0  0  0  0  0
    3.1482   -1.9220   -0.5299 C   0  0  0  0  0  0  0  0  0  0  0  0
    4.2968   -1.1613   -0.2873 C   0  0  0  0  0  0  0  0  0  0  0  0
    4.5993    0.0900   -0.8663 C   0  0  0  0  0  0  0  0  0  0  0  0
    3.7189    0.8080   -1.8121 C   0  0  0  0  0  0  0  0  0  0  0  0
    4.1850    1.1602   -2.9296 O   0  0  0  0  0  0  0  0  0  0  0  0
    2.3373    1.0737   -1.4889 N   0  0  0  0  0  0  0  0  0  0  0  0
    1.3303    1.0644   -2.5624 C   0  0  0  0  0  0  0  0  0  0  0  0
    0.0328    1.7913   -2.1492 C   0  0  0  0  0  0  0  0  0  0  0  0
   -0.5181    1.3782   -0.7567 C   0  0  0  0  0  0  0  0  0  0  0  0
   -1.7497    0.5456   -0.8709 N   0  0  0  0  0  0  0  0  0  0  0  0
   -1.5606   -0.7700   -1.5274 C   0  0  0  0  0  0  0  0  0  0  0  0
   -2.9172   -1.4054   -1.8365 C   0  0  0  0  0  0  0  0  0  0  0  0
   -3.7384   -1.5684   -0.5541 C   0  0  0  0  0  0  0  0  0  0  0  0
   -3.8236   -0.2481    0.2439 C   0  0  0  0  0  0  0  0  0  0  0  0
   -2.4332    0.3888    0.4313 C   0  0  0  0  0  0  0  0  0  0  0  0
   -4.5075   -0.4859    1.5654 C   0  0  0  0  0  0  0  0  0  0  0  0
   -4.0750   -1.2528    2.4673 O   0  0  0  0  0  0  0  0  0  0  0  0
   -5.7502    0.2037    1.6590 N   0  0  0  0  0  0  0  0  0  0  0  0
   -6.8305   -0.0967    2.5876 C   0  0  0  0  0  0  0  0  0  0  0  0
   -8.1435   -0.1729    1.8120 C   0  0  0  0  0  0  0  0  0  0  0  0
   -8.3866    1.1209    1.0233 C   0  0  0  0  0  0  0  0  0  0  0  0
   -7.2380    1.4533    0.0399 C   0  0  0  0  0  0  0  0  0  0  0  0
   -5.9415    0.9394    0.4889 N   0  0  0  0  0  0  0  0  0  0  0  0
   -4.8178    0.7191   -0.3624 C   0  0  0  0  0  0  0  0  0  0  0  0
   -4.6907    1.2668   -1.4894 O   0  0  0  0  0  0  0  0  0  0  0  0
    0.5646    0.7672    0.1730 C   0  0  0  0  0  0  0  0  0  0  0  0
    1.9346    1.3795   -0.1096 C   0  0  0  0  0  0  0  0  0  0  0  0
    5.8269    0.5868   -0.4349 C   0  0  0  0  0  0  0  0  0  0  0  0
    6.3343    1.8971   -0.7283 N   0  0  0  0  0  0  0  0  0  0  0  0
    7.7312    2.2426   -0.6571 C   0  0  0  0  0  0  0  0  0  0  0  0
    8.1404    3.5947   -0.8770 N   0  0  0  0  0  0  0  0  0  0  0  0
    8.6059    1.3638   -0.4215 O   0  0  0  0  0  0  0  0  0  0  0  0
    6.5000   -0.4939    0.6725 S   0  0  0  0  0  0  0  0  0  0  0  0
    5.2668   -1.6325    0.5982 C   0  0  0  0  0  0  0  0  0  0  0  0
    7.9755   -2.9240    1.4476 H   0  0  0  0  0  0  0  0  0  0  0  0
    7.8982   -3.6208    3.0945 H   0  0  0  0  0  0  0  0  0  0  0  0
    7.3599   -1.9319    2.8590 H   0  0  0  0  0  0  0  0  0  0  0  0
    3.8019   -4.5506    1.5473 H   0  0  0  0  0  0  0  0  0  0  0  0
    2.0904   -3.7336   -0.0496 H   0  0  0  0  0  0  0  0  0  0  0  0
    2.3993   -1.5979   -1.2384 H   0  0  0  0  0  0  0  0  0  0  0  0
    1.7292    1.5639   -3.4707 H   0  0  0  0  0  0  0  0  0  0  0  0
    1.1134    0.0110   -2.8287 H   0  0  0  0  0  0  0  0  0  0  0  0
   -0.7387    1.6506   -2.9378 H   0  0  0  0  0  0  0  0  0  0  0  0
    0.2619    2.8817   -2.1376 H   0  0  0  0  0  0  0  0  0  0  0  0
   -0.8170    2.3426   -0.2800 H   0  0  0  0  0  0  0  0  0  0  0  0
   -1.0372   -0.6642   -2.4974 H   0  0  0  0  0  0  0  0  0  0  0  0
   -0.9784   -1.4594   -0.8812 H   0  0  0  0  0  0  0  0  0  0  0  0
   -3.4653   -0.7680   -2.5639 H   0  0  0  0  0  0  0  0  0  0  0  0
   -2.7623   -2.4046   -2.3033 H   0  0  0  0  0  0  0  0  0  0  0  0
   -4.7542   -1.9353   -0.8088 H   0  0  0  0  0  0  0  0  0  0  0  0
   -3.2512   -2.3498    0.0720 H   0  0  0  0  0  0  0  0  0  0  0  0
   -1.8258   -0.2497    1.1167 H   0  0  0  0  0  0  0  0  0  0  0  0
   -2.5551    1.3823    0.9199 H   0  0  0  0  0  0  0  0  0  0  0  0
   -6.8831    0.7071    3.3539 H   0  0  0  0  0  0  0  0  0  0  0  0
   -6.6447   -1.0667    3.0969 H   0  0  0  0  0  0  0  0  0  0  0  0
   -8.9878   -0.3311    2.5164 H   0  0  0  0  0  0  0  0  0  0  0  0
   -8.1057   -1.0408    1.1169 H   0  0  0  0  0  0  0  0  0  0  0  0
   -8.5527    1.9707    1.7362 H   0  0  0  0  0  0  0  0  0  0  0  0
   -9.3320    0.9998    0.4395 H   0  0  0  0  0  0  0  0  0  0  0  0
   -7.1695    2.5611   -0.0612 H   0  0  0  0  0  0  0  0  0  0  0  0
   -7.4716    1.0269   -0.9636 H   0  0  0  0  0  0  0  0  0  0  0  0
    0.6514   -0.3286    0.0345 H   0  0  0  0  0  0  0  0  0  0  0  0
    0.2997    0.9525    1.2394 H   0  0  0  0  0  0  0  0  0  0  0  0
    2.6592    0.9741    0.6256 H   0  0  0  0  0  0  0  0  0  0  0  0
    1.8977    2.4811    0.0282 H   0  0  0  0  0  0  0  0  0  0  0  0
    5.6688    2.6143   -1.0935 H   0  0  0  0  0  0  0  0  0  0  0  0
    7.4482    4.3054   -1.1947 H   0  0  0  0  0  0  0  0  0  0  0  0
    9.1419    3.8646   -0.8051 H   0  0  0  0  0  0  0  0  0  0  0  0
  1  2  1  0
  2  3  1  0
  3  4  2  0
  4  5  1  0
  5  6  2  0
  6  7  1  0
  7  8  1  0
  8  9  1  0
  9 10  2  0
  9 11  1  0
 11 12  1  0
 12 13  1  0
 13 14  1  0
 14 15  1  0
 15 16  1  0
 16 17  1  0
 17 18  1  0
 18 19  1  0
 19 20  1  0
 19 21  1  0
 21 22  2  0
 21 23  1  0
 23 24  1  0
 24 25  1  0
 25 26  1  0
 26 27  1  0
 27 28  1  0
 28 29  1  0
 29 30  2  0
 14 31  1  0
 31 32  1  0
  8 33  2  0
 33 34  1  0
 34 35  1  0
 35 36  1  0
 35 37  2  0
 33 38  1  0
 38 39  1  0
 39  3  1  0
 39  7  2  0
 32 11  1  0
 20 15  1  0
 28 23  1  0
 29 19  1  0
  1 40  1  0
  1 41  1  0
  1 42  1  0
  4 43  1  0
  5 44  1  0
  6 45  1  0
 12 46  1  0
 12 47  1  0
 13 48  1  0
 13 49  1  0
 14 50  1  0
 16 51  1  0
 16 52  1  0
 17 53  1  0
 17 54  1  0
 18 55  1  0
 18 56  1  0
 20 57  1  0
 20 58  1  0
 24 59  1  0
 24 60  1  0
 25 61  1  0
 25 62  1  0
 26 63  1  0
 26 64  1  0
 27 65  1  0
 27 66  1  0
 31 67  1  0
 31 68  1  0
 32 69  1  0
 32 70  1  0
 34 71  1  0
 36 72  1  0
 36 73  1  0
M  END
$$$$

     RDKit          3D

 75 80  0  0  0  0  0  0  0  0999 V2000
    8.1186   -5.1598    0.9543 C   0  0  0  0  0  0  0  0  0  0  0  0
    7.7785   -4.2293   -0.2046 C   0  0  0  0  0  0  0  0  0  0  0  0
    6.9420   -3.1148    0.2494 N   0  0  0  0  0  0  0  0  0  0  0  0
    6.5434   -2.0626   -0.6371 C   0  0  0  0  0  0  0  0  0  0  0  0
    7.0108   -2.0060   -1.8053 O   0  0  0  0  0  0  0  0  0  0  0  0
    5.5366   -1.1368   -0.2299 N   0  0  0  0  0  0  0  0  0  0  0  0
    5.5735    0.2428   -0.5941 C   0  0  0  0  0  0  0  0  0  0  0  0
    6.9480    1.2155   -0.4398 S   0  0  0  0  0  0  0  0  0  0  0  0
    6.1288    2.6525   -0.7208 C   0  0  0  0  0  0  0  0  0  0  0  0
    6.6645    3.9390   -0.7587 C   0  0  0  0  0  0  0  0  0  0  0  0
    5.8016    5.0100   -1.0276 C   0  0  0  0  0  0  0  0  0  0  0  0
    4.4350    4.7753   -1.2717 C   0  0  0  0  0  0  0  0  0  0  0  0
    3.9212    3.4703   -1.2450 C   0  0  0  0  0  0  0  0  0  0  0  0
    4.7781    2.4024   -0.9415 C   0  0  0  0  0  0  0  0  0  0  0  0
    4.4492    1.0328   -0.8557 C   0  0  0  0  0  0  0  0  0  0  0  0
    3.1217    0.4526   -1.1540 C   0  0  0  0  0  0  0  0  0  0  0  0
    3.0549   -0.5924   -1.8568 O   0  0  0  0  0  0  0  0  0  0  0  0
    1.9092    1.0637   -0.6833 N   0  0  0  0  0  0  0  0  0  0  0  0
    1.7595    1.4860    0.7061 C   0  0  0  0  0  0  0  0  0  0  0  0
    0.5277    0.8111    1.3202 C   0  0  0  0  0  0  0  0  0  0  0  0
   -0.7557    1.0422    0.4693 C   0  0  0  0  0  0  0  0  0  0  0  0
   -1.9192    0.3349    1.0959 N   0  0  0  0  0  0  0  0  0  0  0  0
   -2.4173    1.0649    2.2863 C   0  0  0  0  0  0  0  0  0  0  0  0
   -3.3506    0.1707    3.1261 C   0  0  0  0  0  0  0  0  0  0  0  0
   -4.0207   -0.9360    2.2981 C   0  0  0  0  0  0  0  0  0  0  0  0
   -4.3263   -0.4675    0.8643 C   0  0  0  0  0  0  0  0  0  0  0  0
   -3.0594    0.1192    0.1598 C   0  0  0  0  0  0  0  0  0  0  0  0
   -4.9388   -1.5953    0.0626 C   0  0  0  0  0  0  0  0  0  0  0  0
   -4.3596   -2.6853   -0.2065 O   0  0  0  0  0  0  0  0  0  0  0  0
   -6.2596   -1.2967   -0.3665 N   0  0  0  0  0  0  0  0  0  0  0  0
   -7.2346   -2.2446   -0.8954 C   0  0  0  0  0  0  0  0  0  0  0  0
   -8.4434   -1.4873   -1.4560 C   0  0  0  0  0  0  0  0  0  0  0  0
   -8.9644   -0.4554   -0.4462 C   0  0  0  0  0  0  0  0  0  0  0  0
   -7.8950    0.5942   -0.1146 C   0  0  0  0  0  0  0  0  0  0  0  0
   -6.6152   -0.0552    0.1501 N   0  0  0  0  0  0  0  0  0  0  0  0
   -5.4958    0.4937    0.8334 C   0  0  0  0  0  0  0  0  0  0  0  0
   -5.5022    1.6414    1.3518 O   0  0  0  0  0  0  0  0  0  0  0  0
   -0.4680    0.5539   -0.9805 C   0  0  0  0  0  0  0  0  0  0  0  0
    0.7652    1.2268   -1.5802 C   0  0  0  0  0  0  0  0  0  0  0  0
    8.7652   -4.6325    1.6856 H   0  0  0  0  0  0  0  0  0  0  0  0
    7.1898   -5.4928    1.4658 H   0  0  0  0  0  0  0  0  0  0  0  0
    8.6583   -6.0562    0.5806 H   0  0  0  0  0  0  0  0  0  0  0  0
    8.7252   -3.8344   -0.6370 H   0  0  0  0  0  0  0  0  0  0  0  0
    7.2387   -4.8001   -0.9904 H   0  0  0  0  0  0  0  0  0  0  0  0
    6.6125   -3.0770    1.2428 H   0  0  0  0  0  0  0  0  0  0  0  0
    4.7495   -1.4783    0.3662 H   0  0  0  0  0  0  0  0  0  0  0  0
    7.7195    4.1074   -0.5869 H   0  0  0  0  0  0  0  0  0  0  0  0
    6.1927    6.0174   -1.0595 H   0  0  0  0  0  0  0  0  0  0  0  0
    3.7801    5.6092   -1.4901 H   0  0  0  0  0  0  0  0  0  0  0  0
    2.8721    3.3118   -1.4536 H   0  0  0  0  0  0  0  0  0  0  0  0
    2.6561    1.2056    1.2993 H   0  0  0  0  0  0  0  0  0  0  0  0
    1.6485    2.5915    0.7516 H   0  0  0  0  0  0  0  0  0  0  0  0
    0.4300    1.2113    2.3501 H   0  0  0  0  0  0  0  0  0  0  0  0
    0.7214   -0.2817    1.4032 H   0  0  0  0  0  0  0  0  0  0  0  0
   -0.9633    2.1362    0.4212 H   0  0  0  0  0  0  0  0  0  0  0  0
   -2.9546    1.9918    1.9748 H   0  0  0  0  0  0  0  0  0  0  0  0
   -1.5990    1.3928    2.9569 H   0  0  0  0  0  0  0  0  0  0  0  0
   -2.7687   -0.3076    3.9442 H   0  0  0  0  0  0  0  0  0  0  0  0
   -4.1299    0.8040    3.6015 H   0  0  0  0  0  0  0  0  0  0  0  0
   -3.3282   -1.8056    2.2492 H   0  0  0  0  0  0  0  0  0  0  0  0
   -4.9464   -1.2780    2.8093 H   0  0  0  0  0  0  0  0  0  0  0  0
   -3.3129    1.0710   -0.3606 H   0  0  0  0  0  0  0  0  0  0  0  0
   -2.7448   -0.6091   -0.6150 H   0  0  0  0  0  0  0  0  0  0  0  0
   -6.7672   -2.8508   -1.6999 H   0  0  0  0  0  0  0  0  0  0  0  0
   -7.5604   -2.9280   -0.0804 H   0  0  0  0  0  0  0  0  0  0  0  0
   -8.1559   -0.9723   -2.3990 H   0  0  0  0  0  0  0  0  0  0  0  0
   -9.2525   -2.2109   -1.6962 H   0  0  0  0  0  0  0  0  0  0  0  0
   -9.8553    0.0538   -0.8699 H   0  0  0  0  0  0  0  0  0  0  0  0
   -9.2748   -0.9757    0.4878 H   0  0  0  0  0  0  0  0  0  0  0  0
   -8.2140    1.1696    0.7806 H   0  0  0  0  0  0  0  0  0  0  0  0
   -7.7781    1.2961   -0.9696 H   0  0  0  0  0  0  0  0  0  0  0  0
   -0.3201   -0.5493   -0.9848 H   0  0  0  0  0  0  0  0  0  0  0  0
   -1.3134    0.8026   -1.6574 H   0  0  0  0  0  0  0  0  0  0  0  0
    0.5673    2.3121   -1.7238 H   0  0  0  0  0  0  0  0  0  0  0  0
    0.9707    0.7851   -2.5828 H   0  0  0  0  0  0  0  0  0  0  0  0
  1  2  1  0
  2  3  1  0
  3  4  1  0
  4  5  2  0
  4  6  1  0
  6  7  1  0
  7  8  1  0
  8  9  1  0
  9 10  2  0
 10 11  1  0
 11 12  2  0
 12 13  1  0
 13 14  2  0
 14 15  1  0
 15 16  1  0
 16 17  2  0
 16 18  1  0
 18 19  1  0
 19 20  1  0
 20 21  1  0
 21 22  1  0
 22 23  1  0
 23 24  1  0
 24 25  1  0
 25 26  1  0
 26 27  1  0
 26 28  1  0
 28 29  2  0
 28 30  1  0
 30 31  1  0
 31 32  1  0
 32 33  1  0
 33 34  1  0
 34 35  1  0
 35 36  1  0
 36 37  2  0
 21 38  1  0
 38 39  1  0
 15  7  2  0
 39 18  1  0
 14  9  1  0
 27 22  1  0
 35 30  1  0
 36 26  1  0
  1 40  1  0
  1 41  1  0
  1 42  1  0
  2 43  1  0
  2 44  1  0
  3 45  1  0
  6 46  1  0
 10 47  1  0
 11 48  1  0
 12 49  1  0
 13 50  1  0
 19 51  1  0
 19 52  1  0
 20 53  1  0
 20 54  1  0
 21 55  1  0
 23 56  1  0
 23 57  1  0
 24 58  1  0
 24 59  1  0
 25 60  1  0
 25 61  1  0
 27 62  1  0
 27 63  1  0
 31 64  1  0
 31 65  1  0
 32 66  1  0
 32 67  1  0
 33 68  1  0
 33 69  1  0
 34 70  1  0
 34 71  1  0
 38 72  1  0
 38 73  1  0
 39 74  1  0
 39 75  1  0
M  END
$$$$

     RDKit          3D

 47 51  0  0  0  0  0  0  0  0999 V2000
    7.0131    1.8197   -1.6509 C   0  0  0  0  0  0  0  0  0  0  0  0
    6.0619    1.3978   -0.5713 C   0  0  0  0  0  0  0  0  0  0  0  0
    6.3491    1.6669    0.7920 C   0  0  0  0  0  0  0  0  0  0  0  0
    5.4577    1.2669    1.8040 C   0  0  0  0  0  0  0  0  0  0  0  0
    4.2940    0.6060    1.4217 C   0  0  0  0  0  0  0  0  0  0  0  0
    3.2653    0.0924    2.1797 C   0  0  0  0  0  0  0  0  0  0  0  0
    2.3780   -0.4569    1.2571 C   0  0  0  0  0  0  0  0  0  0  0  0
    1.1352   -1.1605    1.6170 C   0  0  0  0  0  0  0  0  0  0  0  0
    0.9526   -1.7854    2.8060 N   0  0  0  0  0  0  0  0  0  0  0  0
   -0.2626   -2.3201    2.8153 N   0  0  0  0  0  0  0  0  0  0  0  0
   -0.8620   -2.0348    1.6492 C   0  0  0  0  0  0  0  0  0  0  0  0
   -2.1508   -2.3648    1.2453 C   0  0  0  0  0  0  0  0  0  0  0  0
   -2.5810   -1.9050   -0.0118 C   0  0  0  0  0  0  0  0  0  0  0  0
   -1.7277   -1.1097   -0.8274 C   0  0  0  0  0  0  0  0  0  0  0  0
   -2.1599   -0.6014   -2.1018 N   0  0  0  0  0  0  0  0  0  0  0  0
   -3.8153   -0.5825   -2.6227 S   0  0  0  0  0  6  0  0  0  0  0  0
   -3.9297    0.2244   -3.8849 O   0  0  0  0  0  0  0  0  0  0  0  0
   -4.2595   -1.9912   -2.9021 O   0  0  0  0  0  0  0  0  0  0  0  0
   -4.8239    0.1592   -1.3843 C   0  0  0  0  0  0  0  0  0  0  0  0
   -6.0624   -0.4028   -1.0413 C   0  0  0  0  0  0  0  0  0  0  0  0
   -6.8464    0.1840   -0.0431 C   0  0  0  0  0  0  0  0  0  0  0  0
   -6.3984    1.3327    0.6149 C   0  0  0  0  0  0  0  0  0  0  0  0
   -5.1658    1.8985    0.2740 C   0  0  0  0  0  0  0  0  0  0  0  0
   -4.7301    3.0108    0.9140 F   0  0  0  0  0  0  0  0  0  0  0  0
   -4.3803    1.3139   -0.7248 C   0  0  0  0  0  0  0  0  0  0  0  0
   -0.4235   -0.8034   -0.3765 C   0  0  0  0  0  0  0  0  0  0  0  0
   -0.0200   -1.3003    0.8634 C   0  0  0  0  0  0  0  0  0  0  0  0
    2.8408   -0.3086   -0.0081 N   0  0  0  0  0  0  0  0  0  0  0  0
    4.0080    0.3455    0.1083 C   0  0  0  0  0  0  0  0  0  0  0  0
    4.8717    0.7226   -0.9186 C   0  0  0  0  0  0  0  0  0  0  0  0
    6.5015    2.5168   -2.3474 H   0  0  0  0  0  0  0  0  0  0  0  0
    7.3547    0.9274   -2.2160 H   0  0  0  0  0  0  0  0  0  0  0  0
    7.9045    2.3319   -1.2308 H   0  0  0  0  0  0  0  0  0  0  0  0
    7.2589    2.1844    1.0684 H   0  0  0  0  0  0  0  0  0  0  0  0
    5.6725    1.4651    2.8461 H   0  0  0  0  0  0  0  0  0  0  0  0
    3.1702    0.1113    3.2576 H   0  0  0  0  0  0  0  0  0  0  0  0
   -0.6679   -2.8569    3.6138 H   0  0  0  0  0  0  0  0  0  0  0  0
   -2.8040   -2.9506    1.8791 H   0  0  0  0  0  0  0  0  0  0  0  0
   -3.5770   -2.1686   -0.3362 H   0  0  0  0  0  0  0  0  0  0  0  0
   -1.4643   -0.1286   -2.7209 H   0  0  0  0  0  0  0  0  0  0  0  0
   -6.4199   -1.2936   -1.5412 H   0  0  0  0  0  0  0  0  0  0  0  0
   -7.8003   -0.2534    0.2220 H   0  0  0  0  0  0  0  0  0  0  0  0
   -7.0063    1.7837    1.3887 H   0  0  0  0  0  0  0  0  0  0  0  0
   -3.4255    1.7558   -0.9808 H   0  0  0  0  0  0  0  0  0  0  0  0
    0.2241   -0.1699   -0.9650 H   0  0  0  0  0  0  0  0  0  0  0  0
    2.4196   -0.6710   -0.8911 H   0  0  0  0  0  0  0  0  0  0  0  0
    4.6309    0.5027   -1.9515 H   0  0  0  0  0  0  0  0  0  0  0  0
  1  2  1  0
  2  3  2  0
  3  4  1  0
  4  5  2  0
  5  6  1  0
  6  7  2  0
  7  8  1  0
  8  9  2  0
  9 10  1  0
 10 11  1  0
 11 12  2  0
 12 13  1  0
 13 14  2  0
 14 15  1  0
 15 16  1  0
 16 17  2  0
 16 18  2  0
 16 19  1  0
 19 20  2  0
 20 21  1  0
 21 22  2  0
 22 23  1  0
 23 24  1  0
 23 25  2  0
 14 26  1  0
 26 27  2  0
  7 28  1  0
 28 29  1  0
 29 30  2  0
 30  2  1  0
 29  5  1  0
 27  8  1  0
 27 11  1  0
 25 19  1  0
  1 31  1  0
  1 32  1  0
  1 33  1  0
  3 34  1  0
  4 35  1  0
  6 36  1  0
 10 37  1  0
 12 38  1  0
 13 39  1  0
 15 40  1  0
 20 41  1  0
 21 42  1  0
 22 43  1  0
 25 44  1  0
 26 45  1  0
 28 46  1  0
 30 47  1  0
M  END
$$$$

     RDKit          3D

 64 68  0  0  0  0  0  0  0  0999 V2000
    6.2482    3.9093   -1.3053 C   0  0  0  0  0  0  0  0  0  0  0  0
    6.6459    2.4471   -1.4752 C   0  0  0  0  0  0  0  0  0  0  0  0
    5.7468    1.5848   -0.7072 N   0  0  0  0  0  0  0  0  0  0  0  0
    5.7308    1.3863    0.6953 C   0  0  0  0  0  0  0  0  0  0  0  0
    6.4025    2.0718    1.5070 O   0  0  0  0  0  0  0  0  0  0  0  0
    4.8798    0.3606    1.0817 O   0  0  0  0  0  0  0  0  0  0  0  0
    4.2389   -0.2014   -0.0702 C   0  0  0  0  0  0  0  0  0  0  0  0
    4.5681   -1.7086   -0.1886 C   0  0  0  0  0  0  0  0  0  0  0  0
    3.4809   -2.5995    0.4432 C   0  0  0  0  0  0  0  0  0  0  0  0
    2.7924   -1.8962    1.6208 C   0  0  0  0  0  0  0  0  0  0  0  0
    2.1545   -0.6108    1.2298 N   0  0  0  0  0  0  0  0  0  0  0  0
    0.6696   -0.6244    1.3204 C   0  0  0  0  0  0  0  0  0  0  0  0
   -0.0004   -1.5812    0.2909 C   0  0  0  0  0  0  0  0  0  0  0  0
   -1.5011   -1.2891    0.1586 C   0  0  0  0  0  0  0  0  0  0  0  0
   -1.7343    0.1211   -0.1985 N   0  0  0  0  0  0  0  0  0  0  0  0
   -2.9986    0.5274   -0.7444 C   0  0  0  0  0  0  0  0  0  0  0  0
   -3.0504    1.4507   -1.6012 O   0  0  0  0  0  0  0  0  0  0  0  0
   -4.2533   -0.0338   -0.2268 C   0  0  0  0  0  0  0  0  0  0  0  0
   -4.9049    0.4832    0.8940 C   0  0  0  0  0  0  0  0  0  0  0  0
   -4.3735    1.5238    1.7274 N   0  0  0  0  0  0  0  0  0  0  0  0
   -5.1434    2.5585    2.3635 C   0  0  0  0  0  0  0  0  0  0  0  0
   -6.5192    2.7766    2.0510 N   0  0  0  0  0  0  0  0  0  0  0  0
   -4.5766    3.3223    3.1895 O   0  0  0  0  0  0  0  0  0  0  0  0
   -6.3191   -0.3975    1.1928 S   0  0  0  0  0  0  0  0  0  0  0  0
   -6.1295   -1.4148   -0.1350 C   0  0  0  0  0  0  0  0  0  0  0  0
   -6.9734   -2.4364   -0.5597 C   0  0  0  0  0  0  0  0  0  0  0  0
   -6.6033   -3.1814   -1.6915 C   0  0  0  0  0  0  0  0  0  0  0  0
   -5.4159   -2.8783   -2.3833 C   0  0  0  0  0  0  0  0  0  0  0  0
   -4.5893   -1.8284   -1.9512 C   0  0  0  0  0  0  0  0  0  0  0  0
   -4.9569   -1.1017   -0.8112 C   0  0  0  0  0  0  0  0  0  0  0  0
   -0.6702    1.1182   -0.0054 C   0  0  0  0  0  0  0  0  0  0  0  0
    0.0782    0.8164    1.2997 C   0  0  0  0  0  0  0  0  0  0  0  0
    2.7228    0.0348    0.0181 C   0  0  0  0  0  0  0  0  0  0  0  0
    4.8533    0.5955   -1.1934 C   0  0  0  0  0  0  0  0  0  0  0  0
    4.6065    0.4252   -2.4170 O   0  0  0  0  0  0  0  0  0  0  0  0
    5.2027    4.0462   -1.6504 H   0  0  0  0  0  0  0  0  0  0  0  0
    6.3289    4.2117   -0.2396 H   0  0  0  0  0  0  0  0  0  0  0  0
    6.9142    4.5541   -1.9158 H   0  0  0  0  0  0  0  0  0  0  0  0
    7.6947    2.2902   -1.1339 H   0  0  0  0  0  0  0  0  0  0  0  0
    6.5884    2.1846   -2.5539 H   0  0  0  0  0  0  0  0  0  0  0  0
    5.5457   -1.9120    0.3042 H   0  0  0  0  0  0  0  0  0  0  0  0
    4.6706   -2.0011   -1.2589 H   0  0  0  0  0  0  0  0  0  0  0  0
    3.9360   -3.5531    0.7921 H   0  0  0  0  0  0  0  0  0  0  0  0
    2.7139   -2.8556   -0.3219 H   0  0  0  0  0  0  0  0  0  0  0  0
    3.5517   -1.6843    2.4020 H   0  0  0  0  0  0  0  0  0  0  0  0
    2.0648   -2.5990    2.0820 H   0  0  0  0  0  0  0  0  0  0  0  0
    0.4045   -1.0249    2.3299 H   0  0  0  0  0  0  0  0  0  0  0  0
    0.4424   -1.4715   -0.7195 H   0  0  0  0  0  0  0  0  0  0  0  0
    0.1455   -2.6398    0.5996 H   0  0  0  0  0  0  0  0  0  0  0  0
   -2.0144   -1.5199    1.1176 H   0  0  0  0  0  0  0  0  0  0  0  0
   -1.9161   -1.9502   -0.6311 H   0  0  0  0  0  0  0  0  0  0  0  0
   -3.3328    1.5874    1.8089 H   0  0  0  0  0  0  0  0  0  0  0  0
   -7.0033    2.2358    1.2938 H   0  0  0  0  0  0  0  0  0  0  0  0
   -7.0361    3.5759    2.4878 H   0  0  0  0  0  0  0  0  0  0  0  0
   -7.8874   -2.6609   -0.0273 H   0  0  0  0  0  0  0  0  0  0  0  0
   -7.2351   -3.9865   -2.0370 H   0  0  0  0  0  0  0  0  0  0  0  0
   -5.1360   -3.4602   -3.2522 H   0  0  0  0  0  0  0  0  0  0  0  0
   -3.6783   -1.6018   -2.4876 H   0  0  0  0  0  0  0  0  0  0  0  0
    0.0283    1.0839   -0.8677 H   0  0  0  0  0  0  0  0  0  0  0  0
   -1.0954    2.1429    0.0561 H   0  0  0  0  0  0  0  0  0  0  0  0
   -0.6523    0.9143    2.1358 H   0  0  0  0  0  0  0  0  0  0  0  0
    0.8568    1.5851    1.4903 H   0  0  0  0  0  0  0  0  0  0  0  0
    2.2552   -0.3485   -0.9097 H   0  0  0  0  0  0  0  0  0  0  0  0
    2.5371    1.1270    0.0546 H   0  0  0  0  0  0  0  0  0  0  0  0
  1  2  1  0
  2  3  1  0
  3  4  1  0
  4  5  2  0
  4  6  1  0
  6  7  1  0
  7  8  1  0
  8  9  1  0
  9 10  1  0
 10 11  1  0
 11 12  1  0
 12 13  1  0
 13 14  1  0
 14 15  1  0
 15 16  1  0
 16 17  2  0
 16 18  1  0
 18 19  2  0
 19 20  1  0
 20 21  1  0
 21 22  1  0
 21 23  2  0
 19 24  1  0
 24 25  1  0
 25 26  2  0
 26 27  1  0
 27 28  2  0
 28 29  1  0
 29 30  2  0
 15 31  1  0
 31 32  1  0
 11 33  1  0
  7 34  1  0
 34 35  2  0
 34  3  1  0
 33  7  1  0
 32 12  1  0
 30 18  1  0
 30 25  1  0
  1 36  1  0
  1 37  1  0
  1 38  1  0
  2 39  1  0
  2 40  1  0
  8 41  1  0
  8 42  1  0
  9 43  1  0
  9 44  1  0
 10 45  1  0
 10 46  1  0
 12 47  1  0
 13 48  1  0
 13 49  1  0
 14 50  1  0
 14 51  1  0
 20 52  1  0
 22 53  1  0
 22 54  1  0
 26 55  1  0
 27 56  1  0
 28 57  1  0
 29 58  1  0
 31 59  1  0
 31 60  1  0
 32 61  1  0
 32 62  1  0
 33 63  1  0
 33 64  1  0
M  END
$$$$

     RDKit          3D

 51 55  0  0  0  0  0  0  0  0999 V2000
    7.9353   -0.3137    1.5482 C   0  0  0  0  0  0  0  0  0  0  0  0
    7.2958   -1.3574    0.8203 O   0  0  0  0  0  0  0  0  0  0  0  0
    6.1833   -1.1755   -0.0155 C   0  0  0  0  0  0  0  0  0  0  0  0
    5.6487   -2.2955   -0.6649 C   0  0  0  0  0  0  0  0  0  0  0  0
    4.5393   -2.1668   -1.5047 C   0  0  0  0  0  0  0  0  0  0  0  0
    3.9534   -0.9145   -1.7019 C   0  0  0  0  0  0  0  0  0  0  0  0
    4.4738    0.2159   -1.0589 C   0  0  0  0  0  0  0  0  0  0  0  0
    3.7083    1.7835   -1.3041 S   0  0  0  0  0  6  0  0  0  0  0  0
    4.0171    2.2596   -2.6953 O   0  0  0  0  0  0  0  0  0  0  0  0
    4.2214    2.7976   -0.3201 O   0  0  0  0  0  0  0  0  0  0  0  0
    1.9901    1.6273   -1.1183 N   0  0  0  0  0  0  0  0  0  0  0  0
    1.3536    1.0965    0.0579 C   0  0  0  0  0  0  0  0  0  0  0  0
    2.0828    0.8370    1.2522 C   0  0  0  0  0  0  0  0  0  0  0  0
    1.4437    0.3002    2.3835 C   0  0  0  0  0  0  0  0  0  0  0  0
    0.0784    0.0534    2.3003 C   0  0  0  0  0  0  0  0  0  0  0  0
   -0.7230   -0.4781    3.2357 N   0  0  0  0  0  0  0  0  0  0  0  0
   -1.9516   -0.5603    2.7401 N   0  0  0  0  0  0  0  0  0  0  0  0
   -1.9380   -0.0686    1.4770 C   0  0  0  0  0  0  0  0  0  0  0  0
   -3.1474    0.0183    0.6388 C   0  0  0  0  0  0  0  0  0  0  0  0
   -3.3679    0.9208   -0.4028 C   0  0  0  0  0  0  0  0  0  0  0  0
   -4.6511    0.6617   -0.8327 C   0  0  0  0  0  0  0  0  0  0  0  0
   -5.4105    1.2668   -1.8307 C   0  0  0  0  0  0  0  0  0  0  0  0
   -6.7219    0.8005   -2.0324 C   0  0  0  0  0  0  0  0  0  0  0  0
   -7.2422   -0.2565   -1.2429 C   0  0  0  0  0  0  0  0  0  0  0  0
   -8.6582   -0.7087   -1.4379 C   0  0  0  0  0  0  0  0  0  0  0  0
   -6.4476   -0.8323   -0.2269 C   0  0  0  0  0  0  0  0  0  0  0  0
   -5.1512   -0.3485   -0.0564 C   0  0  0  0  0  0  0  0  0  0  0  0
   -4.2454   -0.7468    0.8513 N   0  0  0  0  0  0  0  0  0  0  0  0
   -0.6416    0.3227    1.1711 C   0  0  0  0  0  0  0  0  0  0  0  0
   -0.0333    0.8272    0.0201 C   0  0  0  0  0  0  0  0  0  0  0  0
    5.5899    0.0861   -0.2190 C   0  0  0  0  0  0  0  0  0  0  0  0
    7.2189    0.1499    2.2591 H   0  0  0  0  0  0  0  0  0  0  0  0
    8.7824   -0.7386    2.1247 H   0  0  0  0  0  0  0  0  0  0  0  0
    8.3294    0.4529    0.8489 H   0  0  0  0  0  0  0  0  0  0  0  0
    6.0944   -3.2701   -0.5160 H   0  0  0  0  0  0  0  0  0  0  0  0
    4.1320   -3.0384   -2.0012 H   0  0  0  0  0  0  0  0  0  0  0  0
    3.0919   -0.8252   -2.3522 H   0  0  0  0  0  0  0  0  0  0  0  0
    1.4018    1.8755   -1.9445 H   0  0  0  0  0  0  0  0  0  0  0  0
    3.1403    1.0416    1.3175 H   0  0  0  0  0  0  0  0  0  0  0  0
    1.9973    0.0854    3.2882 H   0  0  0  0  0  0  0  0  0  0  0  0
   -0.4487   -0.7889    4.1939 H   0  0  0  0  0  0  0  0  0  0  0  0
   -2.7157    1.7029   -0.7623 H   0  0  0  0  0  0  0  0  0  0  0  0
   -5.0068    2.0733   -2.4307 H   0  0  0  0  0  0  0  0  0  0  0  0
   -7.3337    1.2618   -2.7979 H   0  0  0  0  0  0  0  0  0  0  0  0
   -9.3382   -0.0499   -0.8584 H   0  0  0  0  0  0  0  0  0  0  0  0
   -8.9357   -0.6614   -2.5123 H   0  0  0  0  0  0  0  0  0  0  0  0
   -8.7907   -1.7567   -1.0931 H   0  0  0  0  0  0  0  0  0  0  0  0
   -6.8282   -1.6229    0.4083 H   0  0  0  0  0  0  0  0  0  0  0  0
   -4.3675   -1.4887    1.5760 H   0  0  0  0  0  0  0  0  0  0  0  0
   -0.5936    0.9818   -0.8896 H   0  0  0  0  0  0  0  0  0  0  0  0
    5.9864    0.9637    0.2728 H   0  0  0  0  0  0  0  0  0  0  0  0
  1  2  1  0
  2  3  1  0
  3  4  2  0
  4  5  1  0
  5  6  2  0
  6  7  1  0
  7  8  1  0
  8  9  2  0
  8 10  2  0
  8 11  1  0
 11 12  1  0
 12 13  2  0
 13 14  1  0
 14 15  2  0
 15 16  1  0
 16 17  1  0
 17 18  2  0
 18 19  1  0
 19 20  2  0
 20 21  1  0
 21 22  2  0
 22 23  1  0
 23 24  2  0
 24 25  1  0
 24 26  1  0
 26 27  2  0
 27 28  1  0
 18 29  1  0
 29 30  2  0
  7 31  2  0
 31  3  1  0
 30 12  1  0
 29 15  1  0
 28 19  1  0
 27 21  1  0
  1 32  1  0
  1 33  1  0
  1 34  1  0
  4 35  1  0
  5 36  1  0
  6 37  1  0
 11 38  1  0
 13 39  1  0
 14 40  1  0
 16 41  1  0
 20 42  1  0
 22 43  1  0
 23 44  1  0
 25 45  1  0
 25 46  1  0
 25 47  1  0
 26 48  1  0
 28 49  1  0
 30 50  1  0
 31 51  1  0
M  END
$$$$

     RDKit          3D

 66 71  0  0  0  0  0  0  0  0999 V2000
    8.5566    3.7352   -0.8026 C   0  0  0  0  0  0  0  0  0  0  0  0
    7.3357    4.0963   -0.0217 C   0  0  0  0  0  0  0  0  0  0  0  0
    7.3084    5.1729    0.6339 O   0  0  0  0  0  0  0  0  0  0  0  0
    6.2056    3.2190   -0.0195 N   0  0  0  0  0  0  0  0  0  0  0  0
    4.7659    3.5887    0.8689 S   0  0  0  0  0  6  0  0  0  0  0  0
    4.1730    4.8733    0.3609 O   0  0  0  0  0  0  0  0  0  0  0  0
    5.0925    3.7399    2.3283 O   0  0  0  0  0  0  0  0  0  0  0  0
    3.6078    2.2790    0.6629 C   0  0  0  0  0  0  0  0  0  0  0  0
    2.6206    2.3552   -0.3283 C   0  0  0  0  0  0  0  0  0  0  0  0
    1.7105    1.3077   -0.4967 C   0  0  0  0  0  0  0  0  0  0  0  0
    1.7768    0.1712    0.3253 C   0  0  0  0  0  0  0  0  0  0  0  0
    0.8202   -0.9421    0.1479 C   0  0  0  0  0  0  0  0  0  0  0  0
   -0.5630   -0.8770   -0.0191 C   0  0  0  0  0  0  0  0  0  0  0  0
   -1.3932    0.3410    0.0436 C   0  0  0  0  0  0  0  0  0  0  0  0
   -2.7072    0.3133   -0.2093 C   0  0  0  0  0  0  0  0  0  0  0  0
   -3.5518    1.5237   -0.1418 C   0  0  0  0  0  0  0  0  0  0  0  0
   -4.9255    1.4324   -0.4112 C   0  0  0  0  0  0  0  0  0  0  0  0
   -5.7215    2.5781   -0.3479 C   0  0  0  0  0  0  0  0  0  0  0  0
   -5.1450    3.8098   -0.0159 C   0  0  0  0  0  0  0  0  0  0  0  0
   -5.9150    4.9804    0.0568 C   0  0  0  0  0  0  0  0  0  0  0  0
   -5.3076    6.1958    0.3905 C   0  0  0  0  0  0  0  0  0  0  0  0
   -3.9343    6.2481    0.6523 C   0  0  0  0  0  0  0  0  0  0  0  0
   -3.1600    5.0855    0.5825 C   0  0  0  0  0  0  0  0  0  0  0  0
   -3.7588    3.8652    0.2493 C   0  0  0  0  0  0  0  0  0  0  0  0
   -3.0094    2.7327    0.1796 N   0  0  0  0  0  0  0  0  0  0  0  0
   -1.0707   -2.1273   -0.1792 N   0  0  0  0  0  0  0  0  0  0  0  0
    0.0139   -2.9255   -0.1012 C   0  0  0  0  0  0  0  0  0  0  0  0
    0.0433   -4.3165   -0.2345 C   0  0  0  0  0  0  0  0  0  0  0  0
   -1.1536   -5.0933   -0.4239 N   0  0  0  0  0  0  0  0  0  0  0  0
   -2.2817   -4.9390    0.5026 C   0  0  0  0  0  0  0  0  0  0  0  0
   -3.2667   -6.0971    0.3417 C   0  0  0  0  0  0  0  0  0  0  0  0
   -2.5521   -7.2910    0.1061 O   0  0  0  0  0  0  0  0  0  0  0  0
   -2.0321   -7.2903   -1.2125 C   0  0  0  0  0  0  0  0  0  0  0  0
   -1.2719   -5.9934   -1.5789 C   0  0  0  0  0  0  0  0  0  0  0  0
    1.3062   -4.9354   -0.1614 C   0  0  0  0  0  0  0  0  0  0  0  0
    2.4618   -4.1562    0.0322 C   0  0  0  0  0  0  0  0  0  0  0  0
    2.3542   -2.8036    0.1521 N   0  0  0  0  0  0  0  0  0  0  0  0
    1.1489   -2.2409    0.0935 N   0  0  0  0  0  0  0  0  0  0  0  0
    2.7798    0.0898    1.3037 C   0  0  0  0  0  0  0  0  0  0  0  0
    3.6889    1.1382    1.4716 C   0  0  0  0  0  0  0  0  0  0  0  0
    8.9631    2.7712   -0.4308 H   0  0  0  0  0  0  0  0  0  0  0  0
    8.2937    3.6309   -1.8758 H   0  0  0  0  0  0  0  0  0  0  0  0
    9.3359    4.5200   -0.6962 H   0  0  0  0  0  0  0  0  0  0  0  0
    6.2394    2.3317   -0.5700 H   0  0  0  0  0  0  0  0  0  0  0  0
    2.5583    3.2203   -0.9758 H   0  0  0  0  0  0  0  0  0  0  0  0
    0.9669    1.3766   -1.2808 H   0  0  0  0  0  0  0  0  0  0  0  0
   -0.9182    1.2737    0.3172 H   0  0  0  0  0  0  0  0  0  0  0  0
   -3.1795   -0.6250   -0.4773 H   0  0  0  0  0  0  0  0  0  0  0  0
   -5.3779    0.4824   -0.6685 H   0  0  0  0  0  0  0  0  0  0  0  0
   -6.7818    2.5013   -0.5577 H   0  0  0  0  0  0  0  0  0  0  0  0
   -6.9795    4.9550   -0.1432 H   0  0  0  0  0  0  0  0  0  0  0  0
   -5.9017    7.0988    0.4466 H   0  0  0  0  0  0  0  0  0  0  0  0
   -3.4698    7.1911    0.9100 H   0  0  0  0  0  0  0  0  0  0  0  0
   -2.0975    5.1350    0.7870 H   0  0  0  0  0  0  0  0  0  0  0  0
   -1.8974   -4.9404    1.5463 H   0  0  0  0  0  0  0  0  0  0  0  0
   -2.8081   -3.9801    0.3159 H   0  0  0  0  0  0  0  0  0  0  0  0
   -3.9933   -5.8855   -0.4776 H   0  0  0  0  0  0  0  0  0  0  0  0
   -3.8557   -6.2086    1.2767 H   0  0  0  0  0  0  0  0  0  0  0  0
   -2.8531   -7.4725   -1.9418 H   0  0  0  0  0  0  0  0  0  0  0  0
   -1.3340   -8.1494   -1.3025 H   0  0  0  0  0  0  0  0  0  0  0  0
   -1.8244   -5.4610   -2.3831 H   0  0  0  0  0  0  0  0  0  0  0  0
   -0.2713   -6.2526   -1.9875 H   0  0  0  0  0  0  0  0  0  0  0  0
    1.3955   -6.0112   -0.2409 H   0  0  0  0  0  0  0  0  0  0  0  0
    3.4339   -4.6273    0.0865 H   0  0  0  0  0  0  0  0  0  0  0  0
    2.8510   -0.7778    1.9478 H   0  0  0  0  0  0  0  0  0  0  0  0
    4.4555    1.0595    2.2319 H   0  0  0  0  0  0  0  0  0  0  0  0
  1  2  1  0
  2  3  2  0
  2  4  1  0
  4  5  1  0
  5  6  2  0
  5  7  2  0
  5  8  1  0
  8  9  2  0
  9 10  1  0
 10 11  2  0
 11 12  1  0
 12 13  2  0
 13 14  1  0
 14 15  2  0
 15 16  1  0
 16 17  2  0
 17 18  1  0
 18 19  2  0
 19 20  1  0
 20 21  2  0
 21 22  1  0
 22 23  2  0
 23 24  1  0
 24 25  2  0
 13 26  1  0
 26 27  2  0
 27 28  1  0
 28 29  1  0
 29 30  1  0
 30 31  1  0
 31 32  1  0
 32 33  1  0
 33 34  1  0
 28 35  2  0
 35 36  1  0
 36 37  2  0
 37 38  1  0
 11 39  1  0
 39 40  2  0
 40  8  1  0
 38 12  1  0
 25 16  1  0
 38 27  1  0
 24 19  1  0
 34 29  1  0
  1 41  1  0
  1 42  1  0
  1 43  1  0
  4 44  1  0
  9 45  1  0
 10 46  1  0
 14 47  1  0
 15 48  1  0
 17 49  1  0
 18 50  1  0
 20 51  1  0
 21 52  1  0
 22 53  1  0
 23 54  1  0
 30 55  1  0
 30 56  1  0
 31 57  1  0
 31 58  1  0
 33 59  1  0
 33 60  1  0
 34 61  1  0
 34 62  1  0
 35 63  1  0
 36 64  1  0
 39 65  1  0
 40 66  1  0
M  END
$$$$

     RDKit          3D

 63 68  0  0  0  0  0  0  0  0999 V2000
   -0.4367    7.5658    0.4821 N   0  0  0  0  0  0  0  0  0  0  0  0
    0.4302    6.4723   -0.5415 S   0  0  0  0  0  6  0  0  0  0  0  0
    1.8988    6.5347   -0.2264 O   0  0  0  0  0  0  0  0  0  0  0  0
    0.2213    6.8756   -1.9748 O   0  0  0  0  0  0  0  0  0  0  0  0
   -0.1553    4.8323   -0.2786 C   0  0  0  0  0  0  0  0  0  0  0  0
   -0.7759    4.1174   -1.3115 C   0  0  0  0  0  0  0  0  0  0  0  0
   -1.2277    2.8130   -1.0917 C   0  0  0  0  0  0  0  0  0  0  0  0
   -1.0562    2.2055    0.1613 C   0  0  0  0  0  0  0  0  0  0  0  0
   -1.5197    0.8210    0.3808 C   0  0  0  0  0  0  0  0  0  0  0  0
   -0.7856   -0.2680    0.8535 C   0  0  0  0  0  0  0  0  0  0  0  0
    0.6844   -0.2936    1.1595 C   0  0  0  0  0  0  0  0  0  0  0  0
    1.4943   -0.3727   -0.1432 C   0  0  0  0  0  0  0  0  0  0  0  0
    2.9963   -0.4174    0.0211 C   0  0  0  0  0  0  0  0  0  0  0  0
    3.6463   -0.3672    1.2715 C   0  0  0  0  0  0  0  0  0  0  0  0
    5.0406   -0.4149    1.3295 C   0  0  0  0  0  0  0  0  0  0  0  0
    5.7869   -0.5102    0.1503 C   0  0  0  0  0  0  0  0  0  0  0  0
    7.1892   -0.5589    0.1752 C   0  0  0  0  0  0  0  0  0  0  0  0
    7.9048   -0.6572   -1.0231 C   0  0  0  0  0  0  0  0  0  0  0  0
    7.2273   -0.7059   -2.2463 C   0  0  0  0  0  0  0  0  0  0  0  0
    5.8297   -0.6565   -2.2786 C   0  0  0  0  0  0  0  0  0  0  0  0
    5.1055   -0.5589   -1.0847 C   0  0  0  0  0  0  0  0  0  0  0  0
    3.7472   -0.5112   -1.1116 N   0  0  0  0  0  0  0  0  0  0  0  0
   -1.5352   -1.3984    0.7816 N   0  0  0  0  0  0  0  0  0  0  0  0
   -2.7153   -0.9681    0.2889 C   0  0  0  0  0  0  0  0  0  0  0  0
   -3.8278   -1.7531   -0.0257 C   0  0  0  0  0  0  0  0  0  0  0  0
   -3.8525   -3.1716    0.2045 N   0  0  0  0  0  0  0  0  0  0  0  0
   -3.4541   -3.7229    1.5014 C   0  0  0  0  0  0  0  0  0  0  0  0
   -4.2081   -5.0334    1.7480 C   0  0  0  0  0  0  0  0  0  0  0  0
   -4.0368   -5.9216    0.6576 O   0  0  0  0  0  0  0  0  0  0  0  0
   -4.6392   -5.3811   -0.5041 C   0  0  0  0  0  0  0  0  0  0  0  0
   -3.9391   -4.0881   -0.9331 C   0  0  0  0  0  0  0  0  0  0  0  0
   -4.9299   -1.0965   -0.6038 C   0  0  0  0  0  0  0  0  0  0  0  0
   -4.8783    0.2911   -0.8354 C   0  0  0  0  0  0  0  0  0  0  0  0
   -3.7543    0.9912   -0.5115 N   0  0  0  0  0  0  0  0  0  0  0  0
   -2.7234    0.3464    0.0319 N   0  0  0  0  0  0  0  0  0  0  0  0
   -0.4424    2.9261    1.1972 C   0  0  0  0  0  0  0  0  0  0  0  0
    0.0075    4.2311    0.9767 C   0  0  0  0  0  0  0  0  0  0  0  0
   -0.0399    8.5176    0.3172 H   0  0  0  0  0  0  0  0  0  0  0  0
   -0.2049    7.3106    1.4682 H   0  0  0  0  0  0  0  0  0  0  0  0
   -0.9071    4.5619   -2.2893 H   0  0  0  0  0  0  0  0  0  0  0  0
   -1.6898    2.2694   -1.9058 H   0  0  0  0  0  0  0  0  0  0  0  0
    0.9006   -1.1839    1.7894 H   0  0  0  0  0  0  0  0  0  0  0  0
    0.9685    0.6126    1.7306 H   0  0  0  0  0  0  0  0  0  0  0  0
    1.2459    0.5083   -0.7760 H   0  0  0  0  0  0  0  0  0  0  0  0
    1.1849   -1.2861   -0.6986 H   0  0  0  0  0  0  0  0  0  0  0  0
    3.0972   -0.2927    2.1991 H   0  0  0  0  0  0  0  0  0  0  0  0
    5.5338   -0.3782    2.2933 H   0  0  0  0  0  0  0  0  0  0  0  0
    7.7280   -0.5218    1.1153 H   0  0  0  0  0  0  0  0  0  0  0  0
    8.9864   -0.6956   -1.0044 H   0  0  0  0  0  0  0  0  0  0  0  0
    7.7864   -0.7837   -3.1699 H   0  0  0  0  0  0  0  0  0  0  0  0
    5.3133   -0.6948   -3.2300 H   0  0  0  0  0  0  0  0  0  0  0  0
   -2.3615   -3.9215    1.4982 H   0  0  0  0  0  0  0  0  0  0  0  0
   -3.6861   -3.0040    2.3182 H   0  0  0  0  0  0  0  0  0  0  0  0
   -5.2887   -4.8326    1.9371 H   0  0  0  0  0  0  0  0  0  0  0  0
   -3.8000   -5.5135    2.6625 H   0  0  0  0  0  0  0  0  0  0  0  0
   -5.7272   -5.2009   -0.3431 H   0  0  0  0  0  0  0  0  0  0  0  0
   -4.5488   -6.1234   -1.3263 H   0  0  0  0  0  0  0  0  0  0  0  0
   -2.9125   -4.3243   -1.2862 H   0  0  0  0  0  0  0  0  0  0  0  0
   -4.5050   -3.6279   -1.7709 H   0  0  0  0  0  0  0  0  0  0  0  0
   -5.8219   -1.6528   -0.8653 H   0  0  0  0  0  0  0  0  0  0  0  0
   -5.7243    0.8014   -1.2758 H   0  0  0  0  0  0  0  0  0  0  0  0
   -0.3310    2.4887    2.1813 H   0  0  0  0  0  0  0  0  0  0  0  0
    0.4871    4.7715    1.7838 H   0  0  0  0  0  0  0  0  0  0  0  0
  1  2  1  0
  2  3  2  0
  2  4  2  0
  2  5  1  0
  5  6  2  0
  6  7  1  0
  7  8  2  0
  8  9  1  0
  9 10  2  0
 10 11  1  0
 11 12  1  0
 12 13  1  0
 13 14  2  0
 14 15  1  0
 15 16  2  0
 16 17  1  0
 17 18  2  0
 18 19  1  0
 19 20  2  0
 20 21  1  0
 21 22  2  0
 10 23  1  0
 23 24  2  0
 24 25  1  0
 25 26  1  0
 26 27  1  0
 27 28  1  0
 28 29  1  0
 29 30  1  0
 30 31  1  0
 25 32  2  0
 32 33  1  0
 33 34  2  0
 34 35  1  0
  8 36  1  0
 36 37  2  0
 37  5  1  0
 35  9  1  0
 22 13  1  0
 35 24  1  0
 21 16  1  0
 31 26  1  0
  1 38  1  0
  1 39  1  0
  6 40  1  0
  7 41  1  0
 11 42  1  0
 11 43  1  0
 12 44  1  0
 12 45  1  0
 14 46  1  0
 15 47  1  0
 17 48  1  0
 18 49  1  0
 19 50  1  0
 20 51  1  0
 27 52  1  0
 27 53  1  0
 28 54  1  0
 28 55  1  0
 30 56  1  0
 30 57  1  0
 31 58  1  0
 31 59  1  0
 32 60  1  0
 33 61  1  0
 36 62  1  0
 37 63  1  0
M  END
$$$$

     RDKit          3D

 47 51  0  0  0  0  0  0  0  0999 V2000
    6.4982    2.5024   -2.1412 C   0  0  0  0  0  0  0  0  0  0  0  0
    5.8493    1.5066   -1.2269 C   0  0  0  0  0  0  0  0  0  0  0  0
    6.6579    0.6266   -0.4644 C   0  0  0  0  0  0  0  0  0  0  0  0
    6.0736   -0.3138    0.4032 C   0  0  0  0  0  0  0  0  0  0  0  0
    4.6842   -0.3510    0.4807 C   0  0  0  0  0  0  0  0  0  0  0  0
    3.8504   -1.1380    1.2437 C   0  0  0  0  0  0  0  0  0  0  0  0
    2.5618   -0.7262    0.9103 C   0  0  0  0  0  0  0  0  0  0  0  0
    1.3340   -1.2630    1.5218 C   0  0  0  0  0  0  0  0  0  0  0  0
    1.3013   -1.8181    2.7581 N   0  0  0  0  0  0  0  0  0  0  0  0
    0.0532   -2.1888    3.0176 N   0  0  0  0  0  0  0  0  0  0  0  0
   -0.7102   -1.8845    1.9569 C   0  0  0  0  0  0  0  0  0  0  0  0
   -2.0678   -2.1273    1.7811 C   0  0  0  0  0  0  0  0  0  0  0  0
   -2.6451   -1.7609    0.5525 C   0  0  0  0  0  0  0  0  0  0  0  0
   -1.8564   -1.1730   -0.4764 C   0  0  0  0  0  0  0  0  0  0  0  0
   -2.4226   -0.8053   -1.7469 N   0  0  0  0  0  0  0  0  0  0  0  0
   -4.1275   -0.7423   -2.0655 S   0  0  0  0  0  6  0  0  0  0  0  0
   -4.6821   -2.1395   -2.0502 O   0  0  0  0  0  0  0  0  0  0  0  0
   -4.3557   -0.1406   -3.4232 O   0  0  0  0  0  0  0  0  0  0  0  0
   -4.9296    0.2605   -0.8607 C   0  0  0  0  0  0  0  0  0  0  0  0
   -6.1982   -0.0889   -0.3756 C   0  0  0  0  0  0  0  0  0  0  0  0
   -6.8240    0.7065    0.5897 C   0  0  0  0  0  0  0  0  0  0  0  0
   -6.1874    1.8543    1.0719 C   0  0  0  0  0  0  0  0  0  0  0  0
   -6.7946    2.6238    2.0085 F   0  0  0  0  0  0  0  0  0  0  0  0
   -4.9247    2.2087    0.5870 C   0  0  0  0  0  0  0  0  0  0  0  0
   -4.2974    1.4155   -0.3787 C   0  0  0  0  0  0  0  0  0  0  0  0
   -0.4771   -0.9569   -0.2558 C   0  0  0  0  0  0  0  0  0  0  0  0
    0.0560   -1.3049    0.9860 C   0  0  0  0  0  0  0  0  0  0  0  0
    2.5944    0.2784    0.0009 N   0  0  0  0  0  0  0  0  0  0  0  0
    3.8955    0.4927   -0.2549 C   0  0  0  0  0  0  0  0  0  0  0  0
    4.4421    1.4408   -1.1183 C   0  0  0  0  0  0  0  0  0  0  0  0
    7.1100    1.9691   -2.8988 H   0  0  0  0  0  0  0  0  0  0  0  0
    7.1557    3.1759   -1.5523 H   0  0  0  0  0  0  0  0  0  0  0  0
    5.7429    3.1215   -2.6705 H   0  0  0  0  0  0  0  0  0  0  0  0
    7.7370    0.6747   -0.5426 H   0  0  0  0  0  0  0  0  0  0  0  0
    6.6858   -0.9841    0.9927 H   0  0  0  0  0  0  0  0  0  0  0  0
    4.1366   -1.9052    1.9515 H   0  0  0  0  0  0  0  0  0  0  0  0
   -0.2566   -2.6500    3.9016 H   0  0  0  0  0  0  0  0  0  0  0  0
   -2.6593   -2.5919    2.5594 H   0  0  0  0  0  0  0  0  0  0  0  0
   -3.6973   -1.9561    0.4076 H   0  0  0  0  0  0  0  0  0  0  0  0
   -1.7878   -0.4741   -2.5075 H   0  0  0  0  0  0  0  0  0  0  0  0
   -6.7015   -0.9747   -0.7410 H   0  0  0  0  0  0  0  0  0  0  0  0
   -7.8020    0.4320    0.9636 H   0  0  0  0  0  0  0  0  0  0  0  0
   -4.4312    3.0972    0.9589 H   0  0  0  0  0  0  0  0  0  0  0  0
   -3.3198    1.6990   -0.7474 H   0  0  0  0  0  0  0  0  0  0  0  0
    0.1456   -0.5536   -1.0407 H   0  0  0  0  0  0  0  0  0  0  0  0
    1.7912    0.8239   -0.3807 H   0  0  0  0  0  0  0  0  0  0  0  0
    3.7989    2.1024   -1.6852 H   0  0  0  0  0  0  0  0  0  0  0  0
  1  2  1  0
  2  3  2  0
  3  4  1  0
  4  5  2  0
  5  6  1  0
  6  7  2  0
  7  8  1  0
  8  9  2  0
  9 10  1  0
 10 11  1  0
 11 12  2  0
 12 13  1  0
 13 14  2  0
 14 15  1  0
 15 16  1  0
 16 17  2  0
 16 18  2  0
 16 19  1  0
 19 20  2  0
 20 21  1  0
 21 22  2  0
 22 23  1  0
 22 24  1  0
 24 25  2  0
 14 26  1  0
 26 27  2  0
  7 28  1  0
 28 29  1  0
 29 30  2  0
 30  2  1  0
 29  5  1  0
 27  8  1  0
 27 11  1  0
 25 19  1  0
  1 31  1  0
  1 32  1  0
  1 33  1  0
  3 34  1  0
  4 35  1  0
  6 36  1  0
 10 37  1  0
 12 38  1  0
 13 39  1  0
 15 40  1  0
 20 41  1  0
 21 42  1  0
 24 43  1  0
 25 44  1  0
 26 45  1  0
 28 46  1  0
 30 47  1  0
M  END
$$$$

     RDKit          3D

 79 84  0  0  0  0  0  0  0  0999 V2000
    0.6870   -0.5263   -3.6670 C   0  0  0  0  0  0  0  0  0  0  0  0
    0.7405   -0.1768   -2.2453 N   0  0  0  0  0  0  0  0  0  0  0  0
    1.9740    0.2324   -1.6415 C   0  0  0  0  0  0  0  0  0  0  0  0
    3.1283   -0.5537   -1.7982 C   0  0  0  0  0  0  0  0  0  0  0  0
    4.3408   -0.1496   -1.2418 C   0  0  0  0  0  0  0  0  0  0  0  0
    4.4211    1.0541   -0.5334 C   0  0  0  0  0  0  0  0  0  0  0  0
    5.9579    1.5877    0.1432 S   0  0  0  0  0  6  0  0  0  0  0  0
    7.0937    1.0203   -0.6631 O   0  0  0  0  0  0  0  0  0  0  0  0
    6.0347    3.0891    0.0877 O   0  0  0  0  0  0  0  0  0  0  0  0
    6.0924    1.0498    1.8407 C   0  0  0  0  0  0  0  0  0  0  0  0
    5.9913   -0.4482    1.9236 C   0  0  0  0  0  0  0  0  0  0  0  0
    4.7522   -1.0646    2.1689 C   0  0  0  0  0  0  0  0  0  0  0  0
    4.6548   -2.4589    2.2110 C   0  0  0  0  0  0  0  0  0  0  0  0
    5.7930   -3.2477    2.0123 C   0  0  0  0  0  0  0  0  0  0  0  0
    5.6719   -4.9959    2.0663 Cl  0  0  0  0  0  0  0  0  0  0  0  0
    7.0296   -2.6407    1.7680 C   0  0  0  0  0  0  0  0  0  0  0  0
    7.1291   -1.2463    1.7227 C   0  0  0  0  0  0  0  0  0  0  0  0
    3.2704    1.8303   -0.3569 C   0  0  0  0  0  0  0  0  0  0  0  0
    2.0399    1.4179   -0.8847 C   0  0  0  0  0  0  0  0  0  0  0  0
    0.9264    2.3142   -0.7661 N   0  0  0  0  0  0  0  0  0  0  0  0
   -0.3457    2.0441   -0.6950 C   0  0  0  0  0  0  0  0  0  0  0  0
   -1.2729    3.1833   -0.6328 C   0  0  0  0  0  0  0  0  0  0  0  0
   -1.9739    3.5777   -1.7803 C   0  0  0  0  0  0  0  0  0  0  0  0
   -2.8406    4.6739   -1.7329 C   0  0  0  0  0  0  0  0  0  0  0  0
   -3.0361    5.3744   -0.5271 C   0  0  0  0  0  0  0  0  0  0  0  0
   -3.9409    6.5441   -0.4719 C   0  0  0  0  0  0  0  0  0  0  0  0
   -4.4529    7.0083   -1.5280 O   0  0  0  0  0  0  0  0  0  0  0  0
   -4.2220    7.1576    0.7459 O   0  0  0  0  0  0  0  0  0  0  0  0
   -2.3361    4.9652    0.6220 C   0  0  0  0  0  0  0  0  0  0  0  0
   -1.4536    3.8837    0.5670 C   0  0  0  0  0  0  0  0  0  0  0  0
   -0.8940    0.6616   -0.6082 C   0  0  0  0  0  0  0  0  0  0  0  0
   -1.9971    0.4129    0.2223 C   0  0  0  0  0  0  0  0  0  0  0  0
   -2.6442   -0.8409    0.2553 C   0  0  0  0  0  0  0  0  0  0  0  0
   -2.0988   -1.9103   -0.5124 C   0  0  0  0  0  0  0  0  0  0  0  0
   -1.0034   -1.6390   -1.3595 C   0  0  0  0  0  0  0  0  0  0  0  0
   -0.4003   -0.3778   -1.4046 C   0  0  0  0  0  0  0  0  0  0  0  0
   -2.7159   -3.3190   -0.5248 C   0  0  0  0  0  0  0  0  0  0  0  0
   -1.6168   -4.4026   -0.3777 C   0  0  0  0  0  0  0  0  0  0  0  0
   -3.4442   -3.5342   -1.8715 C   0  0  0  0  0  0  0  0  0  0  0  0
   -3.7083   -3.5227    0.6491 C   0  0  0  0  0  0  0  0  0  0  0  0
   -4.6276   -2.3237    0.8484 C   0  0  0  0  0  0  0  0  0  0  0  0
   -3.8424   -1.0354    1.1963 C   0  0  0  0  0  0  0  0  0  0  0  0
   -3.3262   -1.1002    2.6506 C   0  0  0  0  0  0  0  0  0  0  0  0
   -4.8461    0.1398    1.0798 C   0  0  0  0  0  0  0  0  0  0  0  0
    1.0807    0.3180   -4.2725 H   0  0  0  0  0  0  0  0  0  0  0  0
   -0.3607   -0.7199   -3.9853 H   0  0  0  0  0  0  0  0  0  0  0  0
    1.2888   -1.4370   -3.8648 H   0  0  0  0  0  0  0  0  0  0  0  0
    3.0892   -1.4868   -2.3478 H   0  0  0  0  0  0  0  0  0  0  0  0
    5.2174   -0.7724   -1.3689 H   0  0  0  0  0  0  0  0  0  0  0  0
    5.2821    1.5274    2.4299 H   0  0  0  0  0  0  0  0  0  0  0  0
    7.0625    1.3963    2.2584 H   0  0  0  0  0  0  0  0  0  0  0  0
    3.8624   -0.4653    2.3139 H   0  0  0  0  0  0  0  0  0  0  0  0
    3.6944   -2.9245    2.3943 H   0  0  0  0  0  0  0  0  0  0  0  0
    7.9127   -3.2476    1.6099 H   0  0  0  0  0  0  0  0  0  0  0  0
    8.0925   -0.7888    1.5280 H   0  0  0  0  0  0  0  0  0  0  0  0
    3.3294    2.7638    0.1871 H   0  0  0  0  0  0  0  0  0  0  0  0
   -1.8373    3.0465   -2.7158 H   0  0  0  0  0  0  0  0  0  0  0  0
   -3.3548    4.9747   -2.6386 H   0  0  0  0  0  0  0  0  0  0  0  0
   -4.8347    7.9634    0.7922 H   0  0  0  0  0  0  0  0  0  0  0  0
   -2.4646    5.4862    1.5621 H   0  0  0  0  0  0  0  0  0  0  0  0
   -0.9169    3.5864    1.4622 H   0  0  0  0  0  0  0  0  0  0  0  0
   -2.3460    1.2100    0.8597 H   0  0  0  0  0  0  0  0  0  0  0  0
   -0.5992   -2.4132   -1.9971 H   0  0  0  0  0  0  0  0  0  0  0  0
   -0.9756   -4.1887    0.5055 H   0  0  0  0  0  0  0  0  0  0  0  0
   -0.9670   -4.4695   -1.2748 H   0  0  0  0  0  0  0  0  0  0  0  0
   -2.0749   -5.4060   -0.2376 H   0  0  0  0  0  0  0  0  0  0  0  0
   -2.7269   -3.4904   -2.7192 H   0  0  0  0  0  0  0  0  0  0  0  0
   -4.2088   -2.7500   -2.0449 H   0  0  0  0  0  0  0  0  0  0  0  0
   -3.9424   -4.5275   -1.8998 H   0  0  0  0  0  0  0  0  0  0  0  0
   -4.3356   -4.4246    0.4683 H   0  0  0  0  0  0  0  0  0  0  0  0
   -3.1581   -3.7199    1.5956 H   0  0  0  0  0  0  0  0  0  0  0  0
   -5.2278   -2.1728   -0.0747 H   0  0  0  0  0  0  0  0  0  0  0  0
   -5.3552   -2.5595    1.6572 H   0  0  0  0  0  0  0  0  0  0  0  0
   -4.1553   -1.3308    3.3527 H   0  0  0  0  0  0  0  0  0  0  0  0
   -2.8808   -0.1278    2.9503 H   0  0  0  0  0  0  0  0  0  0  0  0
   -2.5373   -1.8707    2.7661 H   0  0  0  0  0  0  0  0  0  0  0  0
   -5.1143    0.3213    0.0163 H   0  0  0  0  0  0  0  0  0  0  0  0
   -5.7816   -0.0905    1.6358 H   0  0  0  0  0  0  0  0  0  0  0  0
   -4.4453    1.0821    1.5091 H   0  0  0  0  0  0  0  0  0  0  0  0
  1  2  1  0
  2  3  1  0
  3  4  2  0
  4  5  1  0
  5  6  2  0
  6  7  1  0
  7  8  2  0
  7  9  2  0
  7 10  1  0
 10 11  1  0
 11 12  2  0
 12 13  1  0
 13 14  2  0
 14 15  1  0
 14 16  1  0
 16 17  2  0
  6 18  1  0
 18 19  2  0
 19 20  1  0
 20 21  2  0
 21 22  1  0
 22 23  2  0
 23 24  1  0
 24 25  2  0
 25 26  1  0
 26 27  2  0
 26 28  1  0
 25 29  1  0
 29 30  2  0
 21 31  1  0
 31 32  2  0
 32 33  1  0
 33 34  2  0
 34 35  1  0
 35 36  2  0
 34 37  1  0
 37 38  1  0
 37 39  1  0
 37 40  1  0
 40 41  1  0
 41 42  1  0
 42 43  1  0
 42 44  1  0
 36  2  1  0
 19  3  1  0
 30 22  1  0
 36 31  1  0
 17 11  1  0
 42 33  1  0
  1 45  1  0
  1 46  1  0
  1 47  1  0
  4 48  1  0
  5 49  1  0
 10 50  1  0
 10 51  1  0
 12 52  1  0
 13 53  1  0
 16 54  1  0
 17 55  1  0
 18 56  1  0
 23 57  1  0
 24 58  1  0
 28 59  1  0
 29 60  1  0
 30 61  1  0
 32 62  1  0
 35 63  1  0
 38 64  1  0
 38 65  1  0
 38 66  1  0
 39 67  1  0
 39 68  1  0
 39 69  1  0
 40 70  1  0
 40 71  1  0
 41 72  1  0
 41 73  1  0
 43 74  1  0
 43 75  1  0
 43 76  1  0
 44 77  1  0
 44 78  1  0
 44 79  1  0
M  END
$$$$

     RDKit          3D

 71 75  0  0  0  0  0  0  0  0999 V2000
   -6.8607   -5.3155   -0.8144 C   0  0  0  0  0  0  0  0  0  0  0  0
   -5.8973   -4.3028   -0.3972 N   0  0  0  0  0  0  0  0  0  0  0  0
   -5.8808   -2.9899   -0.9729 C   0  0  0  0  0  0  0  0  0  0  0  0
   -6.6969   -2.6964   -1.8876 O   0  0  0  0  0  0  0  0  0  0  0  0
   -4.9508   -2.0134   -0.4747 N   0  0  0  0  0  0  0  0  0  0  0  0
   -4.8581   -0.6519   -0.9319 C   0  0  0  0  0  0  0  0  0  0  0  0
   -5.6478    0.0054   -2.2858 S   0  0  0  0  0  0  0  0  0  0  0  0
   -5.0146    1.5442   -2.0704 C   0  0  0  0  0  0  0  0  0  0  0  0
   -5.2566    2.6376   -2.8345 N   0  0  0  0  0  0  0  0  0  0  0  0
   -4.6721    3.8298   -2.5146 C   0  0  0  0  0  0  0  0  0  0  0  0
   -4.9302    5.0337   -3.3635 C   0  0  0  0  0  0  0  0  0  0  0  0
   -3.8074    3.9175   -1.4000 C   0  0  0  0  0  0  0  0  0  0  0  0
   -3.5651    2.7814   -0.6113 C   0  0  0  0  0  0  0  0  0  0  0  0
   -4.1887    1.5812   -0.9615 C   0  0  0  0  0  0  0  0  0  0  0  0
   -4.0884    0.3416   -0.3109 C   0  0  0  0  0  0  0  0  0  0  0  0
   -3.3021    0.1186    0.9112 C   0  0  0  0  0  0  0  0  0  0  0  0
   -3.8558    0.3378    2.0236 O   0  0  0  0  0  0  0  0  0  0  0  0
   -1.9462   -0.3796    0.8586 N   0  0  0  0  0  0  0  0  0  0  0  0
   -1.1272   -0.2895   -0.3537 C   0  0  0  0  0  0  0  0  0  0  0  0
   -0.0038    0.7357   -0.1452 C   0  0  0  0  0  0  0  0  0  0  0  0
    0.7547    0.5981    1.2113 C   0  0  0  0  0  0  0  0  0  0  0  0
    1.9893   -0.2421    1.1746 N   0  0  0  0  0  0  0  0  0  0  0  0
    1.8696   -1.5203    0.4474 C   0  0  0  0  0  0  0  0  0  0  0  0
    3.0423   -2.4574    0.7863 C   0  0  0  0  0  0  0  0  0  0  0  0
    4.2441   -1.7155    1.3903 C   0  0  0  0  0  0  0  0  0  0  0  0
    4.4859   -0.3309    0.7376 C   0  0  1  0  0  0  0  0  0  0  0  0
    3.1682    0.5201    0.6956 C   0  0  0  0  0  0  0  0  0  0  0  0
    5.6523    0.4103    1.4678 C   0  0  0  0  0  0  0  0  0  0  0  0
    6.7195    0.7595    0.3880 C   0  0  0  0  0  0  0  0  0  0  0  0
    6.7910    2.2730    0.1453 C   0  0  0  0  0  0  0  0  0  0  0  0
    8.1049    0.2126    0.7641 C   0  0  0  0  0  0  0  0  0  0  0  0
    6.2773    0.1249   -0.7980 O   0  0  0  0  0  0  0  0  0  0  0  0
    5.0544   -0.4837   -0.6366 C   0  0  0  0  0  0  0  0  0  0  0  0
    4.4793   -1.0876   -1.5822 O   0  0  0  0  0  0  0  0  0  0  0  0
   -0.1517    0.2203    2.4113 C   0  0  0  0  0  0  0  0  0  0  0  0
   -1.2504   -0.7920    2.0795 C   0  0  0  0  0  0  0  0  0  0  0  0
   -6.7084   -5.5595   -1.8880 H   0  0  0  0  0  0  0  0  0  0  0  0
   -7.8949   -4.9417   -0.6558 H   0  0  0  0  0  0  0  0  0  0  0  0
   -6.7184   -6.2385   -0.2147 H   0  0  0  0  0  0  0  0  0  0  0  0
   -5.2187   -4.5342    0.3625 H   0  0  0  0  0  0  0  0  0  0  0  0
   -4.3257   -2.3068    0.3094 H   0  0  0  0  0  0  0  0  0  0  0  0
   -5.7146    4.8178   -4.1190 H   0  0  0  0  0  0  0  0  0  0  0  0
   -3.9968    5.3269   -3.8882 H   0  0  0  0  0  0  0  0  0  0  0  0
   -5.2732    5.8781   -2.7298 H   0  0  0  0  0  0  0  0  0  0  0  0
   -3.3317    4.8563   -1.1474 H   0  0  0  0  0  0  0  0  0  0  0  0
   -2.9084    2.8435    0.2472 H   0  0  0  0  0  0  0  0  0  0  0  0
   -1.7254    0.0141   -1.2376 H   0  0  0  0  0  0  0  0  0  0  0  0
   -0.7126   -1.2887   -0.5959 H   0  0  0  0  0  0  0  0  0  0  0  0
    0.7000    0.6968   -1.0009 H   0  0  0  0  0  0  0  0  0  0  0  0
   -0.4751    1.7431   -0.1758 H   0  0  0  0  0  0  0  0  0  0  0  0
    1.0693    1.6392    1.4566 H   0  0  0  0  0  0  0  0  0  0  0  0
    0.9430   -2.0486    0.7263 H   0  0  0  0  0  0  0  0  0  0  0  0
    1.8479   -1.3435   -0.6511 H   0  0  0  0  0  0  0  0  0  0  0  0
    3.3569   -2.9975   -0.1323 H   0  0  0  0  0  0  0  0  0  0  0  0
    2.7044   -3.2295    1.5143 H   0  0  0  0  0  0  0  0  0  0  0  0
    4.0478   -1.5691    2.4765 H   0  0  0  0  0  0  0  0  0  0  0  0
    5.1523   -2.3532    1.3034 H   0  0  0  0  0  0  0  0  0  0  0  0
    3.2815    1.4234    1.3312 H   0  0  0  0  0  0  0  0  0  0  0  0
    2.9778    0.9044   -0.3326 H   0  0  0  0  0  0  0  0  0  0  0  0
    5.3186    1.3163    2.0180 H   0  0  0  0  0  0  0  0  0  0  0  0
    6.1043   -0.2407    2.2505 H   0  0  0  0  0  0  0  0  0  0  0  0
    5.7909    2.6607   -0.1472 H   0  0  0  0  0  0  0  0  0  0  0  0
    7.1255    2.8005    1.0639 H   0  0  0  0  0  0  0  0  0  0  0  0
    7.5063    2.4975   -0.6752 H   0  0  0  0  0  0  0  0  0  0  0  0
    8.0563   -0.8885    0.9026 H   0  0  0  0  0  0  0  0  0  0  0  0
    8.8363    0.4297   -0.0436 H   0  0  0  0  0  0  0  0  0  0  0  0
    8.4636    0.6778    1.7079 H   0  0  0  0  0  0  0  0  0  0  0  0
    0.4687   -0.1680    3.2491 H   0  0  0  0  0  0  0  0  0  0  0  0
   -0.6532    1.1423    2.7806 H   0  0  0  0  0  0  0  0  0  0  0  0
   -1.9464   -0.8688    2.9406 H   0  0  0  0  0  0  0  0  0  0  0  0
   -0.8284   -1.8064    1.9462 H   0  0  0  0  0  0  0  0  0  0  0  0
  1  2  1  0
  2  3  1  0
  3  4  2  0
  3  5  1  0
  5  6  1  0
  6  7  1  0
  7  8  1  0
  8  9  2  0
  9 10  1  0
 10 11  1  0
 10 12  2  0
 12 13  1  0
 13 14  2  0
 14 15  1  0
 15 16  1  0
 16 17  2  0
 16 18  1  0
 18 19  1  0
 19 20  1  0
 20 21  1  0
 21 22  1  0
 22 23  1  0
 23 24  1  0
 24 25  1  0
 25 26  1  0
 26 27  1  0
 26 28  1  0
 28 29  1  0
 29 30  1  0
 29 31  1  0
 29 32  1  0
 32 33  1  0
 33 34  2  0
 21 35  1  0
 35 36  1  0
 15  6  2  0
 36 18  1  0
 14  8  1  0
 27 22  1  0
 26 33  1  6
  1 37  1  0
  1 38  1  0
  1 39  1  0
  2 40  1  0
  5 41  1  0
 11 42  1  0
 11 43  1  0
 11 44  1  0
 12 45  1  0
 13 46  1  0
 19 47  1  0
 19 48  1  0
 20 49  1  0
 20 50  1  0
 21 51  1  0
 23 52  1  0
 23 53  1  0
 24 54  1  0
 24 55  1  0
 25 56  1  0
 25 57  1  0
 27 58  1  0
 27 59  1  0
 28 60  1  0
 28 61  1  0
 30 62  1  0
 30 63  1  0
 30 64  1  0
 31 65  1  0
 31 66  1  0
 31 67  1  0
 35 68  1  0
 35 69  1  0
 36 70  1  0
 36 71  1  0
M  END
$$$$

     RDKit          3D

 47 51  0  0  0  0  0  0  0  0999 V2000
   -7.8378    1.5890   -0.5969 C   0  0  0  0  0  0  0  0  0  0  0  0
   -6.4737    1.1334   -0.1722 C   0  0  0  0  0  0  0  0  0  0  0  0
   -6.0104    1.3702    1.1479 C   0  0  0  0  0  0  0  0  0  0  0  0
   -4.7312    0.9405    1.5455 C   0  0  0  0  0  0  0  0  0  0  0  0
   -3.9429    0.2857    0.6033 C   0  0  0  0  0  0  0  0  0  0  0  0
   -2.6781   -0.2498    0.7109 C   0  0  0  0  0  0  0  0  0  0  0  0
   -2.4079   -0.7910   -0.5467 C   0  0  0  0  0  0  0  0  0  0  0  0
   -1.1919   -1.5268   -0.9362 C   0  0  0  0  0  0  0  0  0  0  0  0
   -1.1732   -2.4467   -1.9316 N   0  0  0  0  0  0  0  0  0  0  0  0
    0.0578   -2.9339   -2.0296 N   0  0  0  0  0  0  0  0  0  0  0  0
    0.8289   -2.3287   -1.1136 C   0  0  0  0  0  0  0  0  0  0  0  0
    2.1881   -2.5108   -0.8840 C   0  0  0  0  0  0  0  0  0  0  0  0
    2.7958   -1.7228    0.1090 C   0  0  0  0  0  0  0  0  0  0  0  0
    2.0429   -0.7573    0.8342 C   0  0  0  0  0  0  0  0  0  0  0  0
    2.6515    0.0795    1.8332 N   0  0  0  0  0  0  0  0  0  0  0  0
    4.3656    0.2919    2.0002 S   0  0  0  0  0  6  0  0  0  0  0  0
    4.9678   -0.9737    2.5441 O   0  0  0  0  0  0  0  0  0  0  0  0
    4.6359    1.4113    2.9654 O   0  0  0  0  0  0  0  0  0  0  0  0
    5.0747    0.7082    0.4402 C   0  0  0  0  0  0  0  0  0  0  0  0
    6.2116    0.0294   -0.0247 C   0  0  0  0  0  0  0  0  0  0  0  0
    6.7627    0.3507   -1.2688 C   0  0  0  0  0  0  0  0  0  0  0  0
    6.1842    1.3516   -2.0537 C   0  0  0  0  0  0  0  0  0  0  0  0
    5.0545    2.0342   -1.5946 C   0  0  0  0  0  0  0  0  0  0  0  0
    4.4992    1.7167   -0.3506 C   0  0  0  0  0  0  0  0  0  0  0  0
    3.4034    2.3913    0.0800 F   0  0  0  0  0  0  0  0  0  0  0  0
    0.6625   -0.6104    0.5687 C   0  0  0  0  0  0  0  0  0  0  0  0
    0.0855   -1.4288   -0.4036 C   0  0  0  0  0  0  0  0  0  0  0  0
   -3.4593   -0.6134   -1.3822 N   0  0  0  0  0  0  0  0  0  0  0  0
   -4.3844    0.0506   -0.6707 C   0  0  0  0  0  0  0  0  0  0  0  0
   -5.6466    0.4598   -1.0969 C   0  0  0  0  0  0  0  0  0  0  0  0
   -8.4405    0.7132   -0.9170 H   0  0  0  0  0  0  0  0  0  0  0  0
   -8.3724    2.1008    0.2314 H   0  0  0  0  0  0  0  0  0  0  0  0
   -7.7462    2.2970   -1.4474 H   0  0  0  0  0  0  0  0  0  0  0  0
   -6.6384    1.8835    1.8652 H   0  0  0  0  0  0  0  0  0  0  0  0
   -4.3729    1.1143    2.5521 H   0  0  0  0  0  0  0  0  0  0  0  0
   -2.0671   -0.2849    1.6014 H   0  0  0  0  0  0  0  0  0  0  0  0
    0.3554   -3.6583   -2.7201 H   0  0  0  0  0  0  0  0  0  0  0  0
    2.7608   -3.2321   -1.4525 H   0  0  0  0  0  0  0  0  0  0  0  0
    3.8481   -1.8698    0.3023 H   0  0  0  0  0  0  0  0  0  0  0  0
    2.0406    0.6791    2.4321 H   0  0  0  0  0  0  0  0  0  0  0  0
    6.6703   -0.7492    0.5707 H   0  0  0  0  0  0  0  0  0  0  0  0
    7.6382   -0.1769   -1.6248 H   0  0  0  0  0  0  0  0  0  0  0  0
    6.6116    1.5989   -3.0168 H   0  0  0  0  0  0  0  0  0  0  0  0
    4.6093    2.8101   -2.2041 H   0  0  0  0  0  0  0  0  0  0  0  0
    0.0852    0.1421    1.0845 H   0  0  0  0  0  0  0  0  0  0  0  0
   -3.5385   -0.9295   -2.3749 H   0  0  0  0  0  0  0  0  0  0  0  0
   -5.9789    0.2620   -2.1085 H   0  0  0  0  0  0  0  0  0  0  0  0
  1  2  1  0
  2  3  2  0
  3  4  1  0
  4  5  2  0
  5  6  1  0
  6  7  2  0
  7  8  1  0
  8  9  2  0
  9 10  1  0
 10 11  1  0
 11 12  2  0
 12 13  1  0
 13 14  2  0
 14 15  1  0
 15 16  1  0
 16 17  2  0
 16 18  2  0
 16 19  1  0
 19 20  2  0
 20 21  1  0
 21 22  2  0
 22 23  1  0
 23 24  2  0
 24 25  1  0
 14 26  1  0
 26 27  2  0
  7 28  1  0
 28 29  1  0
 29 30  2  0
 30  2  1  0
 29  5  1  0
 27  8  1  0
 27 11  1  0
 24 19  1  0
  1 31  1  0
  1 32  1  0
  1 33  1  0
  3 34  1  0
  4 35  1  0
  6 36  1  0
 10 37  1  0
 12 38  1  0
 13 39  1  0
 15 40  1  0
 20 41  1  0
 21 42  1  0
 22 43  1  0
 23 44  1  0
 26 45  1  0
 28 46  1  0
 30 47  1  0
M  END
$$$$

     RDKit          3D

 82 87  0  0  0  0  0  0  0  0999 V2000
    1.0554    2.2694   -0.9980 C   0  0  0  0  0  0  0  0  0  0  0  0
    0.5011    1.1805   -0.1905 N   0  0  0  0  0  0  0  0  0  0  0  0
    1.3486    0.3134    0.5648 C   0  0  0  0  0  0  0  0  0  0  0  0
    2.2294    0.8556    1.5115 C   0  0  0  0  0  0  0  0  0  0  0  0
    3.0410    0.0202    2.2746 C   0  0  0  0  0  0  0  0  0  0  0  0
    3.0132   -1.3649    2.0731 C   0  0  0  0  0  0  0  0  0  0  0  0
    4.1275   -2.4108    2.9542 S   0  0  0  0  0  6  0  0  0  0  0  0
    3.4908   -3.7607    3.1375 O   0  0  0  0  0  0  0  0  0  0  0  0
    4.4270   -1.8411    4.3138 O   0  0  0  0  0  0  0  0  0  0  0  0
    5.5966   -2.5957    2.0446 N   0  0  0  0  0  0  0  0  0  0  0  0
    6.3333   -1.4795    1.5218 C   0  0  0  0  0  0  0  0  0  0  0  0
    6.9836   -1.5981    0.2841 C   0  0  0  0  0  0  0  0  0  0  0  0
    7.7038   -0.5216   -0.2427 C   0  0  0  0  0  0  0  0  0  0  0  0
    7.7974    0.6918    0.4672 C   0  0  0  0  0  0  0  0  0  0  0  0
    8.5051    1.8065   -0.0160 O   0  0  0  0  0  0  0  0  0  0  0  0
    9.2431    1.8462   -1.2367 C   0  0  0  0  0  0  0  0  0  0  0  0
    8.4016    1.6235   -2.3127 F   0  0  0  0  0  0  0  0  0  0  0  0
   10.2478    0.8936   -1.2144 F   0  0  0  0  0  0  0  0  0  0  0  0
    9.8224    3.0950   -1.3722 F   0  0  0  0  0  0  0  0  0  0  0  0
    7.1604    0.8016    1.7071 C   0  0  0  0  0  0  0  0  0  0  0  0
    6.4399   -0.2737    2.2332 C   0  0  0  0  0  0  0  0  0  0  0  0
    2.1366   -1.9070    1.1216 C   0  0  0  0  0  0  0  0  0  0  0  0
    1.2690   -1.0803    0.3972 C   0  0  0  0  0  0  0  0  0  0  0  0
    0.4275   -1.6800   -0.5999 N   0  0  0  0  0  0  0  0  0  0  0  0
   -0.7588   -1.3127   -1.0014 C   0  0  0  0  0  0  0  0  0  0  0  0
   -1.3708   -2.1095   -2.0752 C   0  0  0  0  0  0  0  0  0  0  0  0
   -1.1165   -1.7838   -3.4151 C   0  0  0  0  0  0  0  0  0  0  0  0
   -1.6484   -2.5689   -4.4460 C   0  0  0  0  0  0  0  0  0  0  0  0
   -2.4488   -3.6862   -4.1451 C   0  0  0  0  0  0  0  0  0  0  0  0
   -3.0104   -4.5181   -5.2288 C   0  0  0  0  0  0  0  0  0  0  0  0
   -3.8560   -5.4168   -4.9687 O   0  0  0  0  0  0  0  0  0  0  0  0
   -2.6088   -4.3176   -6.5477 O   0  0  0  0  0  0  0  0  0  0  0  0
   -2.6948   -4.0093   -2.7986 C   0  0  0  0  0  0  0  0  0  0  0  0
   -2.1441   -3.2381   -1.7717 C   0  0  0  0  0  0  0  0  0  0  0  0
   -1.5283   -0.1926   -0.3823 C   0  0  0  0  0  0  0  0  0  0  0  0
   -2.9033   -0.3382   -0.1490 C   0  0  0  0  0  0  0  0  0  0  0  0
   -3.6712    0.6803    0.4575 C   0  0  0  0  0  0  0  0  0  0  0  0
   -3.0478    1.9288    0.7410 C   0  0  0  0  0  0  0  0  0  0  0  0
   -1.6659    2.0579    0.5073 C   0  0  0  0  0  0  0  0  0  0  0  0
   -0.9141    1.0194   -0.0486 C   0  0  0  0  0  0  0  0  0  0  0  0
   -3.7975    3.0881    1.4123 C   0  0  0  0  0  0  0  0  0  0  0  0
   -3.4286    4.4445    0.7601 C   0  0  0  0  0  0  0  0  0  0  0  0
   -3.4000    3.1392    2.9052 C   0  0  0  0  0  0  0  0  0  0  0  0
   -5.3265    2.9222    1.2655 C   0  0  0  0  0  0  0  0  0  0  0  0
   -5.7888    1.5140    1.6238 C   0  0  0  0  0  0  0  0  0  0  0  0
   -5.1710    0.4320    0.7019 C   0  0  0  0  0  0  0  0  0  0  0  0
   -5.4023   -0.9350    1.4004 C   0  0  0  0  0  0  0  0  0  0  0  0
   -5.9055    0.4183   -0.6623 C   0  0  0  0  0  0  0  0  0  0  0  0
    0.7908    3.2519   -0.5541 H   0  0  0  0  0  0  0  0  0  0  0  0
    0.6487    2.2079   -2.0277 H   0  0  0  0  0  0  0  0  0  0  0  0
    2.1634    2.1951   -1.0561 H   0  0  0  0  0  0  0  0  0  0  0  0
    2.2745    1.9270    1.6662 H   0  0  0  0  0  0  0  0  0  0  0  0
    3.7068    0.4581    3.0050 H   0  0  0  0  0  0  0  0  0  0  0  0
    5.8257   -3.5525    1.6980 H   0  0  0  0  0  0  0  0  0  0  0  0
    6.9210   -2.5217   -0.2747 H   0  0  0  0  0  0  0  0  0  0  0  0
    8.1864   -0.6458   -1.2013 H   0  0  0  0  0  0  0  0  0  0  0  0
    7.2334    1.7228    2.2739 H   0  0  0  0  0  0  0  0  0  0  0  0
    5.9972   -0.1702    3.2160 H   0  0  0  0  0  0  0  0  0  0  0  0
    2.1278   -2.9739    0.9367 H   0  0  0  0  0  0  0  0  0  0  0  0
   -0.4983   -0.9258   -3.6640 H   0  0  0  0  0  0  0  0  0  0  0  0
   -1.4293   -2.3043   -5.4743 H   0  0  0  0  0  0  0  0  0  0  0  0
   -2.9887   -4.8818   -7.2970 H   0  0  0  0  0  0  0  0  0  0  0  0
   -3.2976   -4.8695   -2.5406 H   0  0  0  0  0  0  0  0  0  0  0  0
   -2.3179   -3.5258   -0.7394 H   0  0  0  0  0  0  0  0  0  0  0  0
   -3.3788   -1.2676   -0.4257 H   0  0  0  0  0  0  0  0  0  0  0  0
   -1.1449    2.9593    0.8049 H   0  0  0  0  0  0  0  0  0  0  0  0
   -2.3970    4.7689    1.0189 H   0  0  0  0  0  0  0  0  0  0  0  0
   -4.1085    5.2502    1.1139 H   0  0  0  0  0  0  0  0  0  0  0  0
   -3.5126    4.3811   -0.3484 H   0  0  0  0  0  0  0  0  0  0  0  0
   -3.5606    2.1573    3.3977 H   0  0  0  0  0  0  0  0  0  0  0  0
   -3.9945    3.9092    3.4438 H   0  0  0  0  0  0  0  0  0  0  0  0
   -2.3242    3.3941    3.0174 H   0  0  0  0  0  0  0  0  0  0  0  0
   -5.6372    3.1464    0.2208 H   0  0  0  0  0  0  0  0  0  0  0  0
   -5.8597    3.6450    1.9245 H   0  0  0  0  0  0  0  0  0  0  0  0
   -5.5406    1.3127    2.6895 H   0  0  0  0  0  0  0  0  0  0  0  0
   -6.8988    1.4760    1.5631 H   0  0  0  0  0  0  0  0  0  0  0  0
   -5.1866   -1.7904    0.7278 H   0  0  0  0  0  0  0  0  0  0  0  0
   -6.4653   -1.0398    1.7159 H   0  0  0  0  0  0  0  0  0  0  0  0
   -4.7600   -1.0264    2.3048 H   0  0  0  0  0  0  0  0  0  0  0  0
   -5.5313   -0.4119   -1.2994 H   0  0  0  0  0  0  0  0  0  0  0  0
   -7.0040    0.2741   -0.5276 H   0  0  0  0  0  0  0  0  0  0  0  0
   -5.7333    1.3687   -1.2115 H   0  0  0  0  0  0  0  0  0  0  0  0
  1  2  1  0
  2  3  1  0
  3  4  2  0
  4  5  1  0
  5  6  2  0
  6  7  1  0
  7  8  2  0
  7  9  2  0
  7 10  1  0
 10 11  1  0
 11 12  2  0
 12 13  1  0
 13 14  2  0
 14 15  1  0
 15 16  1  0
 16 17  1  0
 16 18  1  0
 16 19  1  0
 14 20  1  0
 20 21  2  0
  6 22  1  0
 22 23  2  0
 23 24  1  0
 24 25  2  0
 25 26  1  0
 26 27  2  0
 27 28  1  0
 28 29  2  0
 29 30  1  0
 30 31  2  0
 30 32  1  0
 29 33  1  0
 33 34  2  0
 25 35  1  0
 35 36  2  0
 36 37  1  0
 37 38  2  0
 38 39  1  0
 39 40  2  0
 38 41  1  0
 41 42  1  0
 41 43  1  0
 41 44  1  0
 44 45  1  0
 45 46  1  0
 46 47  1  0
 46 48  1  0
 40  2  1  0
 23  3  1  0
 34 26  1  0
 40 35  1  0
 21 11  1  0
 46 37  1  0
  1 49  1  0
  1 50  1  0
  1 51  1  0
  4 52  1  0
  5 53  1  0
 10 54  1  0
 12 55  1  0
 13 56  1  0
 20 57  1  0
 21 58  1  0
 22 59  1  0
 27 60  1  0
 28 61  1  0
 32 62  1  0
 33 63  1  0
 34 64  1  0
 36 65  1  0
 39 66  1  0
 42 67  1  0
 42 68  1  0
 42 69  1  0
 43 70  1  0
 43 71  1  0
 43 72  1  0
 44 73  1  0
 44 74  1  0
 45 75  1  0
 45 76  1  0
 47 77  1  0
 47 78  1  0
 47 79  1  0
 48 80  1  0
 48 81  1  0
 48 82  1  0
M  END
$$$$

     RDKit          3D

 79 84  0  0  0  0  0  0  0  0999 V2000
   -0.1568   -3.2873    2.1736 C   0  0  0  0  0  0  0  0  0  0  0  0
    0.1392   -2.1992    1.2399 N   0  0  0  0  0  0  0  0  0  0  0  0
    1.4769   -1.9785    0.7771 C   0  0  0  0  0  0  0  0  0  0  0  0
    2.2054   -3.0344    0.2055 C   0  0  0  0  0  0  0  0  0  0  0  0
    3.5073   -2.8281   -0.2531 C   0  0  0  0  0  0  0  0  0  0  0  0
    4.1052   -1.5701   -0.1295 C   0  0  0  0  0  0  0  0  0  0  0  0
    5.7509   -1.3177   -0.7070 S   0  0  0  0  0  6  0  0  0  0  0  0
    6.3605   -0.1479    0.0136 O   0  0  0  0  0  0  0  0  0  0  0  0
    6.5589   -2.5438   -0.3830 O   0  0  0  0  0  0  0  0  0  0  0  0
    5.7400   -1.0601   -2.4400 N   0  0  0  0  0  0  0  0  0  0  0  0
    4.9485    0.1216   -2.8340 C   0  0  0  0  0  0  0  0  0  0  0  0
    5.7408    1.4308   -2.6918 C   0  0  0  0  0  0  0  0  0  0  0  0
    6.9607    1.3612   -3.3999 O   0  0  0  0  0  0  0  0  0  0  0  0
    7.7683    0.3422   -2.8484 C   0  0  0  0  0  0  0  0  0  0  0  0
    7.1000   -1.0318   -3.0100 C   0  0  0  0  0  0  0  0  0  0  0  0
    3.3826   -0.5143    0.4403 C   0  0  0  0  0  0  0  0  0  0  0  0
    2.0622   -0.7003    0.8691 C   0  0  0  0  0  0  0  0  0  0  0  0
    1.4040    0.3955    1.5217 N   0  0  0  0  0  0  0  0  0  0  0  0
    0.1368    0.7054    1.5292 C   0  0  0  0  0  0  0  0  0  0  0  0
   -0.2845    1.8803    2.3378 C   0  0  0  0  0  0  0  0  0  0  0  0
    0.5929    2.9609    2.5364 C   0  0  0  0  0  0  0  0  0  0  0  0
    0.1981    4.0671    3.2949 C   0  0  0  0  0  0  0  0  0  0  0  0
   -1.0809    4.1142    3.8761 C   0  0  0  0  0  0  0  0  0  0  0  0
   -1.5040    5.2837    4.6773 C   0  0  0  0  0  0  0  0  0  0  0  0
   -0.7155    6.2492    4.8637 O   0  0  0  0  0  0  0  0  0  0  0  0
   -2.7795    5.3285    5.2344 O   0  0  0  0  0  0  0  0  0  0  0  0
   -1.9538    3.0297    3.6886 C   0  0  0  0  0  0  0  0  0  0  0  0
   -1.5578    1.9224    2.9335 C   0  0  0  0  0  0  0  0  0  0  0  0
   -0.8723   -0.0228    0.7055 C   0  0  0  0  0  0  0  0  0  0  0  0
   -1.8471    0.7074    0.0108 C   0  0  0  0  0  0  0  0  0  0  0  0
   -2.8859    0.0755   -0.7055 C   0  0  0  0  0  0  0  0  0  0  0  0
   -2.9918   -1.3436   -0.6412 C   0  0  0  0  0  0  0  0  0  0  0  0
   -1.9635   -2.0656   -0.0007 C   0  0  0  0  0  0  0  0  0  0  0  0
   -0.9138   -1.4204    0.6609 C   0  0  0  0  0  0  0  0  0  0  0  0
   -4.1308   -2.1179   -1.3214 C   0  0  0  0  0  0  0  0  0  0  0  0
   -4.7233   -3.1777   -0.3595 C   0  0  0  0  0  0  0  0  0  0  0  0
   -3.5748   -2.8386   -2.5707 C   0  0  0  0  0  0  0  0  0  0  0  0
   -5.2941   -1.1783   -1.7242 C   0  0  0  0  0  0  0  0  0  0  0  0
   -4.7985    0.0981   -2.3920 C   0  0  0  0  0  0  0  0  0  0  0  0
   -3.9106    0.9463   -1.4487 C   0  0  0  0  0  0  0  0  0  0  0  0
   -4.7899    1.6830   -0.4116 C   0  0  0  0  0  0  0  0  0  0  0  0
   -3.1970    2.0002   -2.3329 C   0  0  0  0  0  0  0  0  0  0  0  0
    0.4921   -3.1953    3.0708 H   0  0  0  0  0  0  0  0  0  0  0  0
   -1.2168   -3.2452    2.5060 H   0  0  0  0  0  0  0  0  0  0  0  0
    0.0209   -4.2694    1.6882 H   0  0  0  0  0  0  0  0  0  0  0  0
    1.7595   -4.0144    0.0988 H   0  0  0  0  0  0  0  0  0  0  0  0
    4.0502   -3.6502   -0.7019 H   0  0  0  0  0  0  0  0  0  0  0  0
    4.6491    0.0053   -3.8977 H   0  0  0  0  0  0  0  0  0  0  0  0
    4.0090    0.1860   -2.2474 H   0  0  0  0  0  0  0  0  0  0  0  0
    5.1341    2.2543   -3.1246 H   0  0  0  0  0  0  0  0  0  0  0  0
    5.9102    1.6924   -1.6248 H   0  0  0  0  0  0  0  0  0  0  0  0
    8.0117    0.5528   -1.7842 H   0  0  0  0  0  0  0  0  0  0  0  0
    8.7344    0.3280   -3.3954 H   0  0  0  0  0  0  0  0  0  0  0  0
    7.7396   -1.8174   -2.5533 H   0  0  0  0  0  0  0  0  0  0  0  0
    7.0330   -1.2670   -4.0945 H   0  0  0  0  0  0  0  0  0  0  0  0
    3.8405    0.4621    0.5412 H   0  0  0  0  0  0  0  0  0  0  0  0
    1.5810    2.9573    2.0928 H   0  0  0  0  0  0  0  0  0  0  0  0
    0.8943    4.8869    3.4228 H   0  0  0  0  0  0  0  0  0  0  0  0
   -3.0786    6.1223    5.7871 H   0  0  0  0  0  0  0  0  0  0  0  0
   -2.9434    3.0328    4.1286 H   0  0  0  0  0  0  0  0  0  0  0  0
   -2.2468    1.0943    2.8221 H   0  0  0  0  0  0  0  0  0  0  0  0
   -1.7952    1.7866    0.0427 H   0  0  0  0  0  0  0  0  0  0  0  0
   -1.9560   -3.1463   -0.0295 H   0  0  0  0  0  0  0  0  0  0  0  0
   -4.0134   -4.0062   -0.1585 H   0  0  0  0  0  0  0  0  0  0  0  0
   -5.6357   -3.6366   -0.7990 H   0  0  0  0  0  0  0  0  0  0  0  0
   -5.0008   -2.7110    0.6105 H   0  0  0  0  0  0  0  0  0  0  0  0
   -4.3904   -3.3411   -3.1337 H   0  0  0  0  0  0  0  0  0  0  0  0
   -3.0624   -2.1266   -3.2492 H   0  0  0  0  0  0  0  0  0  0  0  0
   -2.8349   -3.6153   -2.2844 H   0  0  0  0  0  0  0  0  0  0  0  0
   -5.9860   -1.7001   -2.4215 H   0  0  0  0  0  0  0  0  0  0  0  0
   -5.9019   -0.9082   -0.8341 H   0  0  0  0  0  0  0  0  0  0  0  0
   -5.6777    0.6912   -2.7273 H   0  0  0  0  0  0  0  0  0  0  0  0
   -4.2395   -0.1720   -3.3136 H   0  0  0  0  0  0  0  0  0  0  0  0
   -5.2619    0.9687    0.2944 H   0  0  0  0  0  0  0  0  0  0  0  0
   -5.5907    2.2674   -0.9137 H   0  0  0  0  0  0  0  0  0  0  0  0
   -4.1816    2.3913    0.1902 H   0  0  0  0  0  0  0  0  0  0  0  0
   -3.9286    2.5241   -2.9861 H   0  0  0  0  0  0  0  0  0  0  0  0
   -2.6911    2.7818   -1.7300 H   0  0  0  0  0  0  0  0  0  0  0  0
   -2.4391    1.5119   -2.9834 H   0  0  0  0  0  0  0  0  0  0  0  0
  1  2  1  0
  2  3  1  0
  3  4  2  0
  4  5  1  0
  5  6  2  0
  6  7  1  0
  7  8  2  0
  7  9  2  0
  7 10  1  0
 10 11  1  0
 11 12  1  0
 12 13  1  0
 13 14  1  0
 14 15  1  0
  6 16  1  0
 16 17  2  0
 17 18  1  0
 18 19  2  0
 19 20  1  0
 20 21  2  0
 21 22  1  0
 22 23  2  0
 23 24  1  0
 24 25  2  0
 24 26  1  0
 23 27  1  0
 27 28  2  0
 19 29  1  0
 29 30  2  0
 30 31  1  0
 31 32  2  0
 32 33  1  0
 33 34  2  0
 32 35  1  0
 35 36  1  0
 35 37  1  0
 35 38  1  0
 38 39  1  0
 39 40  1  0
 40 41  1  0
 40 42  1  0
 34  2  1  0
 17  3  1  0
 28 20  1  0
 34 29  1  0
 15 10  1  0
 40 31  1  0
  1 43  1  0
  1 44  1  0
  1 45  1  0
  4 46  1  0
  5 47  1  0
 11 48  1  0
 11 49  1  0
 12 50  1  0
 12 51  1  0
 14 52  1  0
 14 53  1  0
 15 54  1  0
 15 55  1  0
 16 56  1  0
 21 57  1  0
 22 58  1  0
 26 59  1  0
 27 60  1  0
 28 61  1  0
 30 62  1  0
 33 63  1  0
 36 64  1  0
 36 65  1  0
 36 66  1  0
 37 67  1  0
 37 68  1  0
 37 69  1  0
 38 70  1  0
 38 71  1  0
 39 72  1  0
 39 73  1  0
 41 74  1  0
 41 75  1  0
 41 76  1  0
 42 77  1  0
 42 78  1  0
 42 79  1  0
M  END
$$$$

     RDKit          3D

 74 78  0  0  0  0  0  0  0  0999 V2000
   -8.4578    4.0926    1.1477 C   0  0  0  0  0  0  0  0  0  0  0  0
   -7.5819    4.1328   -0.1006 C   0  0  0  0  0  0  0  0  0  0  0  0
   -6.3613    3.3535    0.0996 N   0  0  0  0  0  0  0  0  0  0  0  0
   -6.3498    1.9188    0.1215 C   0  0  0  0  0  0  0  0  0  0  0  0
   -7.4159    1.2771   -0.0848 O   0  0  0  0  0  0  0  0  0  0  0  0
   -5.1223    1.2274    0.3969 N   0  0  0  0  0  0  0  0  0  0  0  0
   -4.9425   -0.1949    0.2808 C   0  0  0  0  0  0  0  0  0  0  0  0
   -5.9663   -1.2534   -0.5641 S   0  0  0  0  0  0  0  0  0  0  0  0
   -4.9939   -2.5966   -0.3229 C   0  0  0  0  0  0  0  0  0  0  0  0
   -5.2365   -3.8614   -0.7462 N   0  0  0  0  0  0  0  0  0  0  0  0
   -4.3467   -4.8556   -0.4557 C   0  0  0  0  0  0  0  0  0  0  0  0
   -4.6125   -6.2511   -0.9242 C   0  0  0  0  0  0  0  0  0  0  0  0
   -3.1803   -4.5656    0.2851 C   0  0  0  0  0  0  0  0  0  0  0  0
   -2.9371   -3.2546    0.7219 C   0  0  0  0  0  0  0  0  0  0  0  0
   -3.8632   -2.2578    0.3983 C   0  0  0  0  0  0  0  0  0  0  0  0
   -3.8154   -0.8940    0.7386 C   0  0  0  0  0  0  0  0  0  0  0  0
   -2.7132   -0.2648    1.4914 C   0  0  0  0  0  0  0  0  0  0  0  0
   -2.9875    0.3683    2.5473 O   0  0  0  0  0  0  0  0  0  0  0  0
   -1.3444   -0.3515    1.0444 N   0  0  0  0  0  0  0  0  0  0  0  0
   -0.2621   -0.1404    2.0139 C   0  0  0  0  0  0  0  0  0  0  0  0
    1.1206   -0.2203    1.3542 C   0  0  0  0  0  0  0  0  0  0  0  0
    1.1898    0.6903    0.0978 C   0  0  0  0  0  0  0  0  0  0  0  0
    2.4919    0.5983   -0.6309 N   0  0  0  0  0  0  0  0  0  0  0  0
    2.5987    1.6384   -1.6995 C   0  0  0  0  0  0  0  0  0  0  0  0
    3.7141    2.6614   -1.4631 C   0  0  0  0  0  0  0  0  0  0  0  0
    5.0767    1.9718   -1.3510 C   0  0  0  0  0  0  0  0  0  0  0  0
    5.0185    0.6584   -0.5103 C   0  0  0  0  0  0  0  0  0  0  0  0
    3.6788    0.5379    0.2640 C   0  0  0  0  0  0  0  0  0  0  0  0
    6.2314    0.5401    0.4623 C   0  0  0  0  0  0  0  0  0  0  0  0
    7.1693   -0.5597   -0.1164 C   0  0  0  0  0  0  0  0  0  0  0  0
    7.5309   -1.6117    0.9421 C   0  0  0  0  0  0  0  0  0  0  0  0
    8.4425    0.0550   -0.7163 C   0  0  0  0  0  0  0  0  0  0  0  0
    6.4276   -1.1773   -1.1528 O   0  0  0  0  0  0  0  0  0  0  0  0
    5.2325   -0.5353   -1.3852 C   0  0  0  0  0  0  0  0  0  0  0  0
    4.4268   -0.9219   -2.2730 O   0  0  0  0  0  0  0  0  0  0  0  0
    0.0122    0.3739   -0.8814 C   0  0  0  0  0  0  0  0  0  0  0  0
   -1.0111   -0.6408   -0.3562 C   0  0  0  0  0  0  0  0  0  0  0  0
   -7.8826    4.4525    2.0280 H   0  0  0  0  0  0  0  0  0  0  0  0
   -8.8133    3.0592    1.3418 H   0  0  0  0  0  0  0  0  0  0  0  0
   -9.3425    4.7490    1.0041 H   0  0  0  0  0  0  0  0  0  0  0  0
   -7.3087    5.1910   -0.3072 H   0  0  0  0  0  0  0  0  0  0  0  0
   -8.1436    3.7451   -0.9791 H   0  0  0  0  0  0  0  0  0  0  0  0
   -5.4551    3.8668    0.1885 H   0  0  0  0  0  0  0  0  0  0  0  0
   -4.3055    1.8036    0.6990 H   0  0  0  0  0  0  0  0  0  0  0  0
   -4.6445   -6.9398   -0.0542 H   0  0  0  0  0  0  0  0  0  0  0  0
   -3.8072   -6.5732   -1.6174 H   0  0  0  0  0  0  0  0  0  0  0  0
   -5.5863   -6.3063   -1.4574 H   0  0  0  0  0  0  0  0  0  0  0  0
   -2.4730   -5.3498    0.5249 H   0  0  0  0  0  0  0  0  0  0  0  0
   -2.0507   -3.0329    1.3018 H   0  0  0  0  0  0  0  0  0  0  0  0
   -0.3276   -0.9081    2.8147 H   0  0  0  0  0  0  0  0  0  0  0  0
   -0.3768    0.8626    2.4803 H   0  0  0  0  0  0  0  0  0  0  0  0
    1.3426   -1.2734    1.0734 H   0  0  0  0  0  0  0  0  0  0  0  0
    1.8601    0.1027    2.1178 H   0  0  0  0  0  0  0  0  0  0  0  0
    1.0619    1.7354    0.4653 H   0  0  0  0  0  0  0  0  0  0  0  0
    1.6553    2.2120   -1.8305 H   0  0  0  0  0  0  0  0  0  0  0  0
    2.7804    1.1286   -2.6692 H   0  0  0  0  0  0  0  0  0  0  0  0
    3.4996    3.2296   -0.5313 H   0  0  0  0  0  0  0  0  0  0  0  0
    3.7363    3.3907   -2.3022 H   0  0  0  0  0  0  0  0  0  0  0  0
    5.4609    1.7685   -2.3768 H   0  0  0  0  0  0  0  0  0  0  0  0
    5.7764    2.7148   -0.9103 H   0  0  0  0  0  0  0  0  0  0  0  0
    3.6855   -0.4387    0.7968 H   0  0  0  0  0  0  0  0  0  0  0  0
    3.6250    1.3476    1.0272 H   0  0  0  0  0  0  0  0  0  0  0  0
    5.8838    0.2478    1.4791 H   0  0  0  0  0  0  0  0  0  0  0  0
    6.7696    1.5014    0.6097 H   0  0  0  0  0  0  0  0  0  0  0  0
    6.6100   -2.0985    1.3308 H   0  0  0  0  0  0  0  0  0  0  0  0
    8.1773   -2.3997    0.4979 H   0  0  0  0  0  0  0  0  0  0  0  0
    8.0715   -1.1392    1.7907 H   0  0  0  0  0  0  0  0  0  0  0  0
    9.0369    0.5679    0.0702 H   0  0  0  0  0  0  0  0  0  0  0  0
    9.0705   -0.7354   -1.1809 H   0  0  0  0  0  0  0  0  0  0  0  0
    8.1774    0.7947   -1.5017 H   0  0  0  0  0  0  0  0  0  0  0  0
   -0.5252    1.3208   -1.1110 H   0  0  0  0  0  0  0  0  0  0  0  0
    0.4001   -0.0193   -1.8466 H   0  0  0  0  0  0  0  0  0  0  0  0
   -1.9091   -0.5982   -1.0086 H   0  0  0  0  0  0  0  0  0  0  0  0
   -0.5898   -1.6670   -0.4269 H   0  0  0  0  0  0  0  0  0  0  0  0
  1  2  1  0
  2  3  1  0
  3  4  1  0
  4  5  2  0
  4  6  1  0
  6  7  1  0
  7  8  1  0
  8  9  1  0
  9 10  2  0
 10 11  1  0
 11 12  1  0
 11 13  2  0
 13 14  1  0
 14 15  2  0
 15 16  1  0
 16 17  1  0
 17 18  2  0
 17 19  1  0
 19 20  1  0
 20 21  1  0
 21 22  1  0
 22 23  1  0
 23 24  1  0
 24 25  1  0
 25 26  1  0
 26 27  1  0
 27 28  1  0
 27 29  1  0
 29 30  1  0
 30 31  1  0
 30 32  1  0
 30 33  1  0
 33 34  1  0
 34 35  2  0
 22 36  1  0
 36 37  1  0
 16  7  2  0
 37 19  1  0
 15  9  1  0
 28 23  1  0
 34 27  1  0
  1 38  1  0
  1 39  1  0
  1 40  1  0
  2 41  1  0
  2 42  1  0
  3 43  1  0
  6 44  1  0
 12 45  1  0
 12 46  1  0
 12 47  1  0
 13 48  1  0
 14 49  1  0
 20 50  1  0
 20 51  1  0
 21 52  1  0
 21 53  1  0
 22 54  1  0
 24 55  1  0
 24 56  1  0
 25 57  1  0
 25 58  1  0
 26 59  1  0
 26 60  1  0
 28 61  1  0
 28 62  1  0
 29 63  1  0
 29 64  1  0
 31 65  1  0
 31 66  1  0
 31 67  1  0
 32 68  1  0
 32 69  1  0
 32 70  1  0
 36 71  1  0
 36 72  1  0
 37 73  1  0
 37 74  1  0
M  END
$$$$

     RDKit          3D

 80 85  0  0  0  0  0  0  0  0999 V2000
    7.5091    0.6378   -5.0575 C   0  0  0  0  0  0  0  0  0  0  0  0
    6.7545   -0.2754   -4.2720 O   0  0  0  0  0  0  0  0  0  0  0  0
    6.5317   -0.1342   -2.8951 C   0  0  0  0  0  0  0  0  0  0  0  0
    5.8146   -1.1373   -2.2354 C   0  0  0  0  0  0  0  0  0  0  0  0
    5.5591   -1.0415   -0.8632 C   0  0  0  0  0  0  0  0  0  0  0  0
    6.0177    0.0648   -0.1351 C   0  0  0  0  0  0  0  0  0  0  0  0
    5.6800    0.1773    1.5873 S   0  0  0  0  0  6  0  0  0  0  0  0
    6.5211    1.2573    2.2086 O   0  0  0  0  0  0  0  0  0  0  0  0
    6.0259   -1.1272    2.2522 O   0  0  0  0  0  0  0  0  0  0  0  0
    3.9760    0.5436    1.8326 C   0  0  0  0  0  0  0  0  0  0  0  0
    3.5584    1.8606    2.0574 C   0  0  0  0  0  0  0  0  0  0  0  0
    2.2073    2.1398    2.2812 C   0  0  0  0  0  0  0  0  0  0  0  0
    1.2547    1.1055    2.2608 C   0  0  0  0  0  0  0  0  0  0  0  0
    1.6661   -0.2158    1.9901 C   0  0  0  0  0  0  0  0  0  0  0  0
    3.0289   -0.4885    1.8079 C   0  0  0  0  0  0  0  0  0  0  0  0
    0.7574   -1.3256    2.0328 N   0  0  0  0  0  0  0  0  0  0  0  0
   -0.4999   -1.3735    1.6928 C   0  0  0  0  0  0  0  0  0  0  0  0
   -1.1811   -2.6671    1.8528 C   0  0  0  0  0  0  0  0  0  0  0  0
   -1.0033   -3.6736    0.8911 C   0  0  0  0  0  0  0  0  0  0  0  0
   -1.6083   -4.9215    1.0600 C   0  0  0  0  0  0  0  0  0  0  0  0
   -2.3788   -5.1936    2.2099 C   0  0  0  0  0  0  0  0  0  0  0  0
   -2.9539   -6.5424    2.4315 C   0  0  0  0  0  0  0  0  0  0  0  0
   -2.7242   -7.4707    1.6115 O   0  0  0  0  0  0  0  0  0  0  0  0
   -3.6830   -6.8233    3.5895 O   0  0  0  0  0  0  0  0  0  0  0  0
   -2.5480   -4.1816    3.1729 C   0  0  0  0  0  0  0  0  0  0  0  0
   -1.9590   -2.9237    2.9929 C   0  0  0  0  0  0  0  0  0  0  0  0
   -1.2169   -0.2450    1.0336 C   0  0  0  0  0  0  0  0  0  0  0  0
   -2.1007   -0.5128   -0.0220 C   0  0  0  0  0  0  0  0  0  0  0  0
   -2.8277    0.5078   -0.6672 C   0  0  0  0  0  0  0  0  0  0  0  0
   -2.7425    1.8330   -0.1547 C   0  0  0  0  0  0  0  0  0  0  0  0
   -1.8236    2.0945    0.8843 C   0  0  0  0  0  0  0  0  0  0  0  0
   -1.0694    1.0761    1.4728 C   0  0  0  0  0  0  0  0  0  0  0  0
   -0.1253    1.3996    2.5008 N   0  0  0  0  0  0  0  0  0  0  0  0
   -0.5137    2.2678    3.6150 C   0  0  0  0  0  0  0  0  0  0  0  0
   -3.5377    3.0033   -0.7521 C   0  0  0  0  0  0  0  0  0  0  0  0
   -2.5691    3.9022   -1.5586 C   0  0  0  0  0  0  0  0  0  0  0  0
   -4.1913    3.8565    0.3660 C   0  0  0  0  0  0  0  0  0  0  0  0
   -4.6883    2.5042   -1.6599 C   0  0  0  0  0  0  0  0  0  0  0  0
   -4.2420    1.3880   -2.5980 C   0  0  0  0  0  0  0  0  0  0  0  0
   -3.7595    0.1335   -1.8310 C   0  0  0  0  0  0  0  0  0  0  0  0
   -3.0281   -0.7668   -2.8578 C   0  0  0  0  0  0  0  0  0  0  0  0
   -4.9747   -0.6392   -1.2714 C   0  0  0  0  0  0  0  0  0  0  0  0
    6.7326    1.0759   -0.7907 C   0  0  0  0  0  0  0  0  0  0  0  0
    6.9984    0.9747   -2.1607 C   0  0  0  0  0  0  0  0  0  0  0  0
    8.5550    0.6848   -4.6866 H   0  0  0  0  0  0  0  0  0  0  0  0
    7.5200    0.2843   -6.1089 H   0  0  0  0  0  0  0  0  0  0  0  0
    7.0486    1.6450   -5.0256 H   0  0  0  0  0  0  0  0  0  0  0  0
    5.4567   -1.9968   -2.7865 H   0  0  0  0  0  0  0  0  0  0  0  0
    5.0091   -1.8309   -0.3682 H   0  0  0  0  0  0  0  0  0  0  0  0
    4.2767    2.6698    2.0736 H   0  0  0  0  0  0  0  0  0  0  0  0
    1.9010    3.1639    2.4571 H   0  0  0  0  0  0  0  0  0  0  0  0
    3.3498   -1.5097    1.6526 H   0  0  0  0  0  0  0  0  0  0  0  0
   -0.3907   -3.4968    0.0129 H   0  0  0  0  0  0  0  0  0  0  0  0
   -1.4486   -5.6841    0.3063 H   0  0  0  0  0  0  0  0  0  0  0  0
   -4.0326   -7.7573    3.7731 H   0  0  0  0  0  0  0  0  0  0  0  0
   -3.1119   -4.3726    4.0804 H   0  0  0  0  0  0  0  0  0  0  0  0
   -2.0817   -2.1647    3.7565 H   0  0  0  0  0  0  0  0  0  0  0  0
   -2.2138   -1.5351   -0.3503 H   0  0  0  0  0  0  0  0  0  0  0  0
   -1.6631    3.1060    1.2256 H   0  0  0  0  0  0  0  0  0  0  0  0
   -1.5694    2.0696    3.8979 H   0  0  0  0  0  0  0  0  0  0  0  0
    0.1283    2.0624    4.5006 H   0  0  0  0  0  0  0  0  0  0  0  0
   -0.4044    3.3345    3.3223 H   0  0  0  0  0  0  0  0  0  0  0  0
   -2.0392    3.3204   -2.3385 H   0  0  0  0  0  0  0  0  0  0  0  0
   -3.1190    4.7322   -2.0509 H   0  0  0  0  0  0  0  0  0  0  0  0
   -1.7975    4.3511   -0.8927 H   0  0  0  0  0  0  0  0  0  0  0  0
   -4.7835    3.2076    1.0517 H   0  0  0  0  0  0  0  0  0  0  0  0
   -4.8786    4.6125   -0.0720 H   0  0  0  0  0  0  0  0  0  0  0  0
   -3.4405    4.4145    0.9669 H   0  0  0  0  0  0  0  0  0  0  0  0
   -5.0845    3.3461   -2.2697 H   0  0  0  0  0  0  0  0  0  0  0  0
   -5.5417    2.1376   -1.0457 H   0  0  0  0  0  0  0  0  0  0  0  0
   -5.0925    1.1247   -3.2650 H   0  0  0  0  0  0  0  0  0  0  0  0
   -3.4380    1.7709   -3.2606 H   0  0  0  0  0  0  0  0  0  0  0  0
   -2.8172   -1.7763   -2.4545 H   0  0  0  0  0  0  0  0  0  0  0  0
   -3.6541   -0.9160   -3.7636 H   0  0  0  0  0  0  0  0  0  0  0  0
   -2.0643   -0.3024   -3.1650 H   0  0  0  0  0  0  0  0  0  0  0  0
   -4.6610   -1.6081   -0.8281 H   0  0  0  0  0  0  0  0  0  0  0  0
   -5.7094   -0.8593   -2.0777 H   0  0  0  0  0  0  0  0  0  0  0  0
   -5.4901   -0.0628   -0.4728 H   0  0  0  0  0  0  0  0  0  0  0  0
    7.0831    1.9434   -0.2429 H   0  0  0  0  0  0  0  0  0  0  0  0
    7.5553    1.7680   -2.6411 H   0  0  0  0  0  0  0  0  0  0  0  0
  1  2  1  0
  2  3  1  0
  3  4  2  0
  4  5  1  0
  5  6  2  0
  6  7  1  0
  7  8  2  0
  7  9  2  0
  7 10  1  0
 10 11  2  0
 11 12  1  0
 12 13  2  0
 13 14  1  0
 14 15  2  0
 14 16  1  0
 16 17  2  0
 17 18  1  0
 18 19  2  0
 19 20  1  0
 20 21  2  0
 21 22  1  0
 22 23  2  0
 22 24  1  0
 21 25  1  0
 25 26  2  0
 17 27  1  0
 27 28  2  0
 28 29  1  0
 29 30  2  0
 30 31  1  0
 31 32  2  0
 32 33  1  0
 33 34  1  0
 30 35  1  0
 35 36  1  0
 35 37  1  0
 35 38  1  0
 38 39  1  0
 39 40  1  0
 40 41  1  0
 40 42  1  0
  6 43  1  0
 43 44  2  0
 44  3  1  0
 15 10  1  0
 26 18  1  0
 32 27  1  0
 33 13  1  0
 40 29  1  0
  1 45  1  0
  1 46  1  0
  1 47  1  0
  4 48  1  0
  5 49  1  0
 11 50  1  0
 12 51  1  0
 15 52  1  0
 19 53  1  0
 20 54  1  0
 24 55  1  0
 25 56  1  0
 26 57  1  0
 28 58  1  0
 31 59  1  0
 34 60  1  0
 34 61  1  0
 34 62  1  0
 36 63  1  0
 36 64  1  0
 36 65  1  0
 37 66  1  0
 37 67  1  0
 37 68  1  0
 38 69  1  0
 38 70  1  0
 39 71  1  0
 39 72  1  0
 41 73  1  0
 41 74  1  0
 41 75  1  0
 42 76  1  0
 42 77  1  0
 42 78  1  0
 43 79  1  0
 44 80  1  0
M  END
$$$$

     RDKit          3D

 81 86  0  0  0  0  0  0  0  0999 V2000
    9.1021    3.7050    0.8154 C   0  0  0  0  0  0  0  0  0  0  0  0
    7.8777    3.9360   -0.0653 C   0  0  0  0  0  0  0  0  0  0  0  0
    6.8341    2.9548    0.2280 N   0  0  0  0  0  0  0  0  0  0  0  0
    6.9192    1.5804   -0.1706 C   0  0  0  0  0  0  0  0  0  0  0  0
    7.9206    1.1769   -0.8209 O   0  0  0  0  0  0  0  0  0  0  0  0
    5.8596    0.6790    0.1816 N   0  0  0  0  0  0  0  0  0  0  0  0
    5.7514   -0.6855   -0.2698 C   0  0  0  0  0  0  0  0  0  0  0  0
    6.7261   -1.4216   -1.4442 S   0  0  0  0  0  0  0  0  0  0  0  0
    5.9023   -2.8823   -1.4326 C   0  0  0  0  0  0  0  0  0  0  0  0
    6.1667   -4.0197   -2.1926 C   0  0  0  0  0  0  0  0  0  0  0  0
    5.3394   -5.1383   -2.0222 C   0  0  0  0  0  0  0  0  0  0  0  0
    4.2786   -5.1035   -1.0987 C   0  0  0  0  0  0  0  0  0  0  0  0
    4.0325   -3.9472   -0.3387 C   0  0  0  0  0  0  0  0  0  0  0  0
    4.8523   -2.8257   -0.5251 C   0  0  0  0  0  0  0  0  0  0  0  0
    4.7503   -1.5827    0.1311 C   0  0  0  0  0  0  0  0  0  0  0  0
    3.7247   -1.2551    1.1429 C   0  0  0  0  0  0  0  0  0  0  0  0
    4.1109   -0.8412    2.2709 O   0  0  0  0  0  0  0  0  0  0  0  0
    2.3117   -1.3932    0.8704 N   0  0  0  0  0  0  0  0  0  0  0  0
    1.7743   -1.3946   -0.4982 C   0  0  0  0  0  0  0  0  0  0  0  0
    0.9510   -0.1218   -0.7364 C   0  0  0  0  0  0  0  0  0  0  0  0
   -0.1198    0.0890    0.3586 C   0  0  0  0  0  0  0  0  0  0  0  0
   -0.8630    1.3455    0.0461 N   0  0  0  0  0  0  0  0  0  0  0  0
   -1.1616    2.3085    1.1319 C   0  0  0  0  0  0  0  0  0  0  0  0
   -2.3230    1.8719    2.0488 C   0  0  0  0  0  0  0  0  0  0  0  0
   -3.1354    0.7023    1.4818 C   0  0  0  0  0  0  0  0  0  0  0  0
   -3.3487    0.8227   -0.0426 C   0  0  0  0  0  0  0  0  0  0  0  0
   -2.0359    1.1304   -0.8310 C   0  0  0  0  0  0  0  0  0  0  0  0
   -4.4289    1.8260   -0.3623 C   0  0  0  0  0  0  0  0  0  0  0  0
   -4.3626    3.0524   -0.0824 O   0  0  0  0  0  0  0  0  0  0  0  0
   -5.5580    1.2343   -1.0020 N   0  0  0  0  0  0  0  0  0  0  0  0
   -6.8472    1.9390   -1.1773 C   0  0  0  0  0  0  0  0  0  0  0  0
   -7.8391    1.6629   -0.0039 C   0  0  0  0  0  0  0  0  0  0  0  0
   -7.9828    0.1428    0.1489 C   0  0  0  0  0  0  0  0  0  0  0  0
   -8.0351   -1.3677    0.3343 C   0  0  0  0  0  0  0  0  0  0  0  0
   -6.8801   -2.0563   -0.4800 C   0  0  0  0  0  0  0  0  0  0  0  0
   -6.2191   -1.2057   -1.6252 C   0  0  0  0  0  0  0  0  0  0  0  0
   -5.3180   -0.1552   -1.1024 N   0  0  0  0  0  0  0  0  0  0  0  0
   -4.0254   -0.4191   -0.5610 C   0  0  0  0  0  0  0  0  0  0  0  0
   -3.5205   -1.5750   -0.5160 O   0  0  0  0  0  0  0  0  0  0  0  0
    0.5562    0.0558    1.7552 C   0  0  0  0  0  0  0  0  0  0  0  0
    1.3249   -1.2543    1.9452 C   0  0  0  0  0  0  0  0  0  0  0  0
    9.5633    2.7216    0.5921 H   0  0  0  0  0  0  0  0  0  0  0  0
    8.8136    3.7324    1.8889 H   0  0  0  0  0  0  0  0  0  0  0  0
    9.8532    4.4993    0.6259 H   0  0  0  0  0  0  0  0  0  0  0  0
    8.1602    3.8846   -1.1393 H   0  0  0  0  0  0  0  0  0  0  0  0
    7.4859    4.9577    0.1400 H   0  0  0  0  0  0  0  0  0  0  0  0
    5.9699    3.2873    0.7122 H   0  0  0  0  0  0  0  0  0  0  0  0
    5.0962    1.0555    0.7866 H   0  0  0  0  0  0  0  0  0  0  0  0
    6.9885   -4.0407   -2.8962 H   0  0  0  0  0  0  0  0  0  0  0  0
    5.5191   -6.0332   -2.6028 H   0  0  0  0  0  0  0  0  0  0  0  0
    3.6476   -5.9727   -0.9694 H   0  0  0  0  0  0  0  0  0  0  0  0
    3.2192   -3.9347    0.3758 H   0  0  0  0  0  0  0  0  0  0  0  0
    1.1255   -2.2887   -0.6341 H   0  0  0  0  0  0  0  0  0  0  0  0
    2.5750   -1.4427   -1.2652 H   0  0  0  0  0  0  0  0  0  0  0  0
    1.6351    0.7582   -0.7633 H   0  0  0  0  0  0  0  0  0  0  0  0
    0.4659   -0.2040   -1.7365 H   0  0  0  0  0  0  0  0  0  0  0  0
   -0.8134   -0.7792    0.3152 H   0  0  0  0  0  0  0  0  0  0  0  0
   -1.4405    3.2777    0.6600 H   0  0  0  0  0  0  0  0  0  0  0  0
   -0.2576    2.5414    1.7310 H   0  0  0  0  0  0  0  0  0  0  0  0
   -1.9319    1.5870    3.0492 H   0  0  0  0  0  0  0  0  0  0  0  0
   -2.9990    2.7388    2.2150 H   0  0  0  0  0  0  0  0  0  0  0  0
   -4.1135    0.6468    2.0080 H   0  0  0  0  0  0  0  0  0  0  0  0
   -2.6002   -0.2427    1.7115 H   0  0  0  0  0  0  0  0  0  0  0  0
   -2.1626    2.0403   -1.4564 H   0  0  0  0  0  0  0  0  0  0  0  0
   -1.8247    0.3260   -1.5707 H   0  0  0  0  0  0  0  0  0  0  0  0
   -7.3014    1.6355   -2.1454 H   0  0  0  0  0  0  0  0  0  0  0  0
   -6.6733    3.0344   -1.2509 H   0  0  0  0  0  0  0  0  0  0  0  0
   -8.8259    2.1205   -0.2422 H   0  0  0  0  0  0  0  0  0  0  0  0
   -7.4767    2.1511    0.9341 H   0  0  0  0  0  0  0  0  0  0  0  0
   -6.9734    0.1233    0.6152 H   0  0  0  0  0  0  0  0  0  0  0  0
   -8.3460    0.0432   -0.8964 H   0  0  0  0  0  0  0  0  0  0  0  0
   -7.9511   -1.6373    1.4141 H   0  0  0  0  0  0  0  0  0  0  0  0
   -9.0219   -1.7694   -0.0010 H   0  0  0  0  0  0  0  0  0  0  0  0
   -7.2827   -2.9911   -0.9274 H   0  0  0  0  0  0  0  0  0  0  0  0
   -6.0842   -2.3683    0.2304 H   0  0  0  0  0  0  0  0  0  0  0  0
   -5.6207   -1.8928   -2.2627 H   0  0  0  0  0  0  0  0  0  0  0  0
   -6.9726   -0.7768   -2.3167 H   0  0  0  0  0  0  0  0  0  0  0  0
   -0.2032    0.1215    2.5575 H   0  0  0  0  0  0  0  0  0  0  0  0
    1.2726    0.8990    1.8618 H   0  0  0  0  0  0  0  0  0  0  0  0
    1.8047   -1.2657    2.9466 H   0  0  0  0  0  0  0  0  0  0  0  0
    0.6185   -2.1134    1.9132 H   0  0  0  0  0  0  0  0  0  0  0  0
  1  2  1  0
  2  3  1  0
  3  4  1  0
  4  5  2  0
  4  6  1  0
  6  7  1  0
  7  8  1  0
  8  9  1  0
  9 10  2  0
 10 11  1  0
 11 12  2  0
 12 13  1  0
 13 14  2  0
 14 15  1  0
 15 16  1  0
 16 17  2  0
 16 18  1  0
 18 19  1  0
 19 20  1  0
 20 21  1  0
 21 22  1  0
 22 23  1  0
 23 24  1  0
 24 25  1  0
 25 26  1  0
 26 27  1  0
 26 28  1  0
 28 29  2  0
 28 30  1  0
 30 31  1  0
 31 32  1  0
 32 33  1  0
 33 34  1  0
 34 35  1  0
 35 36  1  0
 36 37  1  0
 37 38  1  0
 38 39  2  0
 21 40  1  0
 40 41  1  0
 15  7  2  0
 41 18  1  0
 14  9  1  0
 27 22  1  0
 37 30  1  0
 38 26  1  0
  1 42  1  0
  1 43  1  0
  1 44  1  0
  2 45  1  0
  2 46  1  0
  3 47  1  0
  6 48  1  0
 10 49  1  0
 11 50  1  0
 12 51  1  0
 13 52  1  0
 19 53  1  0
 19 54  1  0
 20 55  1  0
 20 56  1  0
 21 57  1  0
 23 58  1  0
 23 59  1  0
 24 60  1  0
 24 61  1  0
 25 62  1  0
 25 63  1  0
 27 64  1  0
 27 65  1  0
 31 66  1  0
 31 67  1  0
 32 68  1  0
 32 69  1  0
 33 70  1  0
 33 71  1  0
 34 72  1  0
 34 73  1  0
 35 74  1  0
 35 75  1  0
 36 76  1  0
 36 77  1  0
 40 78  1  0
 40 79  1  0
 41 80  1  0
 41 81  1  0
M  END
$$$$

     RDKit          3D

 79 84  0  0  0  0  0  0  0  0999 V2000
    8.2211    5.3319    1.1404 C   0  0  0  0  0  0  0  0  0  0  0  0
    8.2731    3.8104    1.0431 C   0  0  0  0  0  0  0  0  0  0  0  0
    6.9728    3.2675    0.6550 N   0  0  0  0  0  0  0  0  0  0  0  0
    6.7643    1.8586    0.4958 C   0  0  0  0  0  0  0  0  0  0  0  0
    7.7054    1.0525    0.7382 O   0  0  0  0  0  0  0  0  0  0  0  0
    5.4945    1.3805    0.0290 N   0  0  0  0  0  0  0  0  0  0  0  0
    5.1163   -0.0054   -0.0182 C   0  0  0  0  0  0  0  0  0  0  0  0
    5.8493   -1.2614    0.8491 S   0  0  0  0  0  0  0  0  0  0  0  0
    4.7939   -2.4520    0.3073 C   0  0  0  0  0  0  0  0  0  0  0  0
    4.8222   -3.8170    0.5970 C   0  0  0  0  0  0  0  0  0  0  0  0
    5.8094   -4.3164    1.4594 O   0  0  0  0  0  0  0  0  0  0  0  0
    5.9736   -5.6974    1.7738 C   0  0  0  0  0  0  0  0  0  0  0  0
    3.8429   -4.6381   -0.0065 C   0  0  0  0  0  0  0  0  0  0  0  0
    2.8870   -4.0825   -0.8767 C   0  0  0  0  0  0  0  0  0  0  0  0
    2.8902   -2.7068   -1.1567 C   0  0  0  0  0  0  0  0  0  0  0  0
    3.8510   -1.8905   -0.5462 C   0  0  0  0  0  0  0  0  0  0  0  0
    4.0186   -0.5050   -0.7261 C   0  0  0  0  0  0  0  0  0  0  0  0
    3.1849    0.3281   -1.6151 C   0  0  0  0  0  0  0  0  0  0  0  0
    3.7377    0.8795   -2.6043 O   0  0  0  0  0  0  0  0  0  0  0  0
    1.7838    0.5522   -1.3486 N   0  0  0  0  0  0  0  0  0  0  0  0
    0.9710    1.3164   -2.3087 C   0  0  0  0  0  0  0  0  0  0  0  0
   -0.4611    0.7695   -2.3758 C   0  0  0  0  0  0  0  0  0  0  0  0
   -1.0797    0.4595   -0.9844 C   0  0  0  0  0  0  0  0  0  0  0  0
   -2.4560    1.0156   -0.8792 N   0  0  0  0  0  0  0  0  0  0  0  0
   -2.5267    2.4854   -0.6779 C   0  0  0  0  0  0  0  0  0  0  0  0
   -3.9862    2.9891   -0.5958 C   0  0  0  0  0  0  0  0  0  0  0  0
   -5.0011    1.9057   -0.9778 C   0  0  0  0  0  0  0  0  0  0  0  0
   -4.7861    0.6049   -0.1601 C   0  0  0  0  0  0  0  0  0  0  0  0
   -3.2863    0.3221    0.1234 C   0  0  0  0  0  0  0  0  0  0  0  0
   -5.4504   -0.5618   -0.8578 C   0  0  0  0  0  0  0  0  0  0  0  0
   -5.1438   -0.9828   -2.0063 O   0  0  0  0  0  0  0  0  0  0  0  0
   -6.4874   -1.1342   -0.0705 N   0  0  0  0  0  0  0  0  0  0  0  0
   -7.5406   -2.0263   -0.5458 C   0  0  0  0  0  0  0  0  0  0  0  0
   -8.2998   -2.6142    0.6490 C   0  0  0  0  0  0  0  0  0  0  0  0
   -8.7387   -1.5078    1.6214 C   0  0  0  0  0  0  0  0  0  0  0  0
   -7.5365   -0.7277    2.1770 C   0  0  0  0  0  0  0  0  0  0  0  0
   -6.6024   -0.3952    1.1044 N   0  0  0  0  0  0  0  0  0  0  0  0
   -5.5981    0.6108    1.1151 C   0  0  0  0  0  0  0  0  0  0  0  0
   -5.4293    1.4102    2.0752 O   0  0  0  0  0  0  0  0  0  0  0  0
   -0.1481    0.8555    0.1867 C   0  0  0  0  0  0  0  0  0  0  0  0
    1.2377    0.2371   -0.0155 C   0  0  0  0  0  0  0  0  0  0  0  0
    7.9246    5.7685    0.1623 H   0  0  0  0  0  0  0  0  0  0  0  0
    7.4827    5.6341    1.9146 H   0  0  0  0  0  0  0  0  0  0  0  0
    9.2212    5.7259    1.4219 H   0  0  0  0  0  0  0  0  0  0  0  0
    8.5715    3.3903    2.0281 H   0  0  0  0  0  0  0  0  0  0  0  0
    9.0360    3.5224    0.2885 H   0  0  0  0  0  0  0  0  0  0  0  0
    6.1689    3.9133    0.4778 H   0  0  0  0  0  0  0  0  0  0  0  0
    4.8106    2.0894   -0.3176 H   0  0  0  0  0  0  0  0  0  0  0  0
    6.1836   -6.2743    0.8501 H   0  0  0  0  0  0  0  0  0  0  0  0
    5.0585   -6.0874    2.2696 H   0  0  0  0  0  0  0  0  0  0  0  0
    6.8293   -5.8127    2.4670 H   0  0  0  0  0  0  0  0  0  0  0  0
    3.8140   -5.7039    0.1833 H   0  0  0  0  0  0  0  0  0  0  0  0
    2.1451   -4.7238   -1.3374 H   0  0  0  0  0  0  0  0  0  0  0  0
    2.1592   -2.2944   -1.8394 H   0  0  0  0  0  0  0  0  0  0  0  0
    1.4066    1.2732   -3.3302 H   0  0  0  0  0  0  0  0  0  0  0  0
    0.9453    2.3825   -1.9967 H   0  0  0  0  0  0  0  0  0  0  0  0
   -0.4494   -0.1631   -2.9819 H   0  0  0  0  0  0  0  0  0  0  0  0
   -1.0863    1.4875   -2.9464 H   0  0  0  0  0  0  0  0  0  0  0  0
   -1.1535   -0.6525   -0.9461 H   0  0  0  0  0  0  0  0  0  0  0  0
   -2.0278    2.7832    0.2678 H   0  0  0  0  0  0  0  0  0  0  0  0
   -2.0114    3.0080   -1.5087 H   0  0  0  0  0  0  0  0  0  0  0  0
   -4.1189    3.8649   -1.2680 H   0  0  0  0  0  0  0  0  0  0  0  0
   -4.2029    3.3315    0.4402 H   0  0  0  0  0  0  0  0  0  0  0  0
   -4.8777    1.6953   -2.0649 H   0  0  0  0  0  0  0  0  0  0  0  0
   -6.0323    2.2977   -0.8400 H   0  0  0  0  0  0  0  0  0  0  0  0
   -3.0094    0.6753    1.1433 H   0  0  0  0  0  0  0  0  0  0  0  0
   -3.1046   -0.7769    0.1116 H   0  0  0  0  0  0  0  0  0  0  0  0
   -7.0994   -2.8480   -1.1482 H   0  0  0  0  0  0  0  0  0  0  0  0
   -8.2442   -1.4491   -1.1860 H   0  0  0  0  0  0  0  0  0  0  0  0
   -9.1987   -3.1562    0.2781 H   0  0  0  0  0  0  0  0  0  0  0  0
   -7.6502   -3.3447    1.1802 H   0  0  0  0  0  0  0  0  0  0  0  0
   -9.2996   -1.9602    2.4683 H   0  0  0  0  0  0  0  0  0  0  0  0
   -9.4218   -0.8062    1.0949 H   0  0  0  0  0  0  0  0  0  0  0  0
   -7.0092   -1.3409    2.9395 H   0  0  0  0  0  0  0  0  0  0  0  0
   -7.8989    0.2028    2.6631 H   0  0  0  0  0  0  0  0  0  0  0  0
   -0.5695    0.5043    1.1548 H   0  0  0  0  0  0  0  0  0  0  0  0
   -0.0146    1.9562    0.2430 H   0  0  0  0  0  0  0  0  0  0  0  0
    1.1636   -0.8638    0.1044 H   0  0  0  0  0  0  0  0  0  0  0  0
    1.9173    0.6314    0.7726 H   0  0  0  0  0  0  0  0  0  0  0  0
  1  2  1  0
  2  3  1  0
  3  4  1  0
  4  5  2  0
  4  6  1  0
  6  7  1  0
  7  8  1  0
  8  9  1  0
  9 10  2  0
 10 11  1  0
 11 12  1  0
 10 13  1  0
 13 14  2  0
 14 15  1  0
 15 16  2  0
 16 17  1  0
 17 18  1  0
 18 19  2  0
 18 20  1  0
 20 21  1  0
 21 22  1  0
 22 23  1  0
 23 24  1  0
 24 25  1  0
 25 26  1  0
 26 27  1  0
 27 28  1  0
 28 29  1  0
 28 30  1  0
 30 31  2  0
 30 32  1  0
 32 33  1  0
 33 34  1  0
 34 35  1  0
 35 36  1  0
 36 37  1  0
 37 38  1  0
 38 39  2  0
 23 40  1  0
 40 41  1  0
 17  7  2  0
 41 20  1  0
 16  9  1  0
 29 24  1  0
 37 32  1  0
 38 28  1  0
  1 42  1  0
  1 43  1  0
  1 44  1  0
  2 45  1  0
  2 46  1  0
  3 47  1  0
  6 48  1  0
 12 49  1  0
 12 50  1  0
 12 51  1  0
 13 52  1  0
 14 53  1  0
 15 54  1  0
 21 55  1  0
 21 56  1  0
 22 57  1  0
 22 58  1  0
 23 59  1  0
 25 60  1  0
 25 61  1  0
 26 62  1  0
 26 63  1  0
 27 64  1  0
 27 65  1  0
 29 66  1  0
 29 67  1  0
 33 68  1  0
 33 69  1  0
 34 70  1  0
 34 71  1  0
 35 72  1  0
 35 73  1  0
 36 74  1  0
 36 75  1  0
 40 76  1  0
 40 77  1  0
 41 78  1  0
 41 79  1  0
M  END
$$$$

     RDKit          3D

 52 56  0  0  0  0  0  0  0  0999 V2000
   -0.6475   -3.2897   -0.3341 O   0  0  0  0  0  0  0  0  0  0  0  0
   -0.2363   -2.1266   -0.0739 C   0  0  0  0  0  0  0  0  0  0  0  0
    1.1271   -1.9644    0.3491 N   0  0  0  0  0  0  0  0  0  0  0  0
    1.5464   -1.1018    1.4223 C   0  0  0  0  0  0  0  0  0  0  0  0
    0.7444   -0.9647    2.5695 C   0  0  0  0  0  0  0  0  0  0  0  0
    1.1132   -0.0942    3.5963 C   0  0  0  0  0  0  0  0  0  0  0  0
    2.3004    0.6300    3.5049 C   0  0  0  0  0  0  0  0  0  0  0  0
    2.6536    1.4743    4.5032 F   0  0  0  0  0  0  0  0  0  0  0  0
    3.1281    0.4824    2.3859 C   0  0  0  0  0  0  0  0  0  0  0  0
    4.2988    1.1684    2.3341 F   0  0  0  0  0  0  0  0  0  0  0  0
    2.7643   -0.3867    1.3415 C   0  0  0  0  0  0  0  0  0  0  0  0
    3.6574   -0.5255    0.1762 C   0  0  0  0  0  0  0  0  0  0  0  0
    4.1581   -1.6477   -0.0997 O   0  0  0  0  0  0  0  0  0  0  0  0
    3.9671    0.5993   -0.6460 N   0  0  0  0  0  0  0  0  0  0  0  0
    4.8166    0.8738   -1.8176 C   0  0  0  0  0  0  0  0  0  0  0  0
    4.4703    2.3220   -1.9313 C   0  0  0  0  0  0  0  0  0  0  0  0
    3.6104    2.0264   -0.7481 C   0  0  0  0  0  0  0  0  0  0  0  0
   -1.1474   -0.9598   -0.2375 C   0  0  0  0  0  0  0  0  0  0  0  0
   -0.8425    0.2058    0.3938 N   0  0  0  0  0  0  0  0  0  0  0  0
   -1.6363    1.3058    0.3259 C   0  0  0  0  0  0  0  0  0  0  0  0
   -1.2990    2.5356    1.1169 C   0  0  0  0  0  0  0  0  0  0  0  0
   -0.5878    3.6199    0.3157 C   0  0  0  0  0  0  0  0  0  0  0  0
    0.1862    2.8028    1.3405 C   0  0  0  0  0  0  0  0  0  0  0  0
   -2.8151    1.2424   -0.4174 C   0  0  0  0  0  0  0  0  0  0  0  0
   -3.1293    0.0928   -1.0670 N   0  0  0  0  0  0  0  0  0  0  0  0
   -2.3379   -1.0146   -1.0009 C   0  0  0  0  0  0  0  0  0  0  0  0
   -2.6901   -2.1751   -1.7714 N   0  0  0  0  0  0  0  0  0  0  0  0
   -4.0421   -2.6338   -1.9395 C   0  0  0  0  0  0  0  0  0  0  0  0
   -4.3708   -3.4645   -3.0171 C   0  0  0  0  0  0  0  0  0  0  0  0
   -5.6426   -3.9185   -3.1641 N   0  0  0  0  0  0  0  0  0  0  0  0
   -6.6104   -3.5892   -2.2694 C   0  0  0  0  0  0  0  0  0  0  0  0
   -6.3133   -2.8006   -1.2048 N   0  0  0  0  0  0  0  0  0  0  0  0
   -5.0556   -2.3201   -1.0211 C   0  0  0  0  0  0  0  0  0  0  0  0
    1.8354   -2.5832   -0.0980 H   0  0  0  0  0  0  0  0  0  0  0  0
   -0.1794   -1.5210    2.6591 H   0  0  0  0  0  0  0  0  0  0  0  0
    0.4749    0.0194    4.4628 H   0  0  0  0  0  0  0  0  0  0  0  0
    5.8905    0.7073   -1.5781 H   0  0  0  0  0  0  0  0  0  0  0  0
    4.4798    0.2824   -2.6991 H   0  0  0  0  0  0  0  0  0  0  0  0
    5.3259    2.9948   -1.6974 H   0  0  0  0  0  0  0  0  0  0  0  0
    3.8914    2.5616   -2.8516 H   0  0  0  0  0  0  0  0  0  0  0  0
    2.5304    2.1493   -0.9683 H   0  0  0  0  0  0  0  0  0  0  0  0
    3.9278    2.5857    0.1545 H   0  0  0  0  0  0  0  0  0  0  0  0
   -1.9909    2.8952    1.9092 H   0  0  0  0  0  0  0  0  0  0  0  0
   -0.3365    3.3687   -0.7369 H   0  0  0  0  0  0  0  0  0  0  0  0
   -0.8081    4.6599    0.6413 H   0  0  0  0  0  0  0  0  0  0  0  0
    0.9010    2.0813    0.8915 H   0  0  0  0  0  0  0  0  0  0  0  0
    0.4154    3.3541    2.2743 H   0  0  0  0  0  0  0  0  0  0  0  0
   -3.4749    2.0931   -0.4808 H   0  0  0  0  0  0  0  0  0  0  0  0
   -1.9390   -2.6292   -2.3413 H   0  0  0  0  0  0  0  0  0  0  0  0
   -3.6189   -3.7475   -3.7409 H   0  0  0  0  0  0  0  0  0  0  0  0
   -7.6152   -3.9588   -2.4047 H   0  0  0  0  0  0  0  0  0  0  0  0
   -4.8483   -1.7175   -0.1460 H   0  0  0  0  0  0  0  0  0  0  0  0
  1  2  2  0
  2  3  1  0
  3  4  1  0
  4  5  2  0
  5  6  1  0
  6  7  2  0
  7  8  1  0
  7  9  1  0
  9 10  1  0
  9 11  2  0
 11 12  1  0
 12 13  2  0
 12 14  1  0
 14 15  1  0
 15 16  1  0
 16 17  1  0
  2 18  1  0
 18 19  2  0
 19 20  1  0
 20 21  1  0
 21 22  1  0
 22 23  1  0
 20 24  2  0
 24 25  1  0
 25 26  2  0
 26 27  1  0
 27 28  1  0
 28 29  2  0
 29 30  1  0
 30 31  2  0
 31 32  1  0
 32 33  2  0
 11  4  1  0
 17 14  1  0
 26 18  1  0
 33 28  1  0
 23 21  1  0
  3 34  1  0
  5 35  1  0
  6 36  1  0
 15 37  1  0
 15 38  1  0
 16 39  1  0
 16 40  1  0
 17 41  1  0
 17 42  1  0
 21 43  1  0
 22 44  1  0
 22 45  1  0
 23 46  1  0
 23 47  1  0
 24 48  1  0
 27 49  1  0
 29 50  1  0
 31 51  1  0
 33 52  1  0
M  END
$$$$

     RDKit          3D

 78 82  0  0  0  0  0  0  0  0999 V2000
   -6.1398    5.4543    2.7957 C   0  0  0  0  0  0  0  0  0  0  0  0
   -5.9705    5.4625    1.2794 C   0  0  0  0  0  0  0  0  0  0  0  0
   -5.0445    4.4122    0.8500 N   0  0  0  0  0  0  0  0  0  0  0  0
   -5.3878    3.0189    0.8502 C   0  0  0  0  0  0  0  0  0  0  0  0
   -6.5278    2.6521    1.2429 O   0  0  0  0  0  0  0  0  0  0  0  0
   -4.4415    2.0571    0.3575 N   0  0  0  0  0  0  0  0  0  0  0  0
   -4.6162    0.6325    0.4468 C   0  0  0  0  0  0  0  0  0  0  0  0
   -5.5998   -0.1653    1.5752 S   0  0  0  0  0  0  0  0  0  0  0  0
   -5.1592   -1.6985    1.0681 C   0  0  0  0  0  0  0  0  0  0  0  0
   -5.6088   -2.8760    1.5683 N   0  0  0  0  0  0  0  0  0  0  0  0
   -5.1596   -4.0511    1.0359 C   0  0  0  0  0  0  0  0  0  0  0  0
   -5.6194   -5.3489    1.6229 C   0  0  0  0  0  0  0  0  0  0  0  0
   -4.2349   -4.0371   -0.0329 C   0  0  0  0  0  0  0  0  0  0  0  0
   -3.7855   -2.8133   -0.5541 C   0  0  0  0  0  0  0  0  0  0  0  0
   -4.2470   -1.6289    0.0289 C   0  0  0  0  0  0  0  0  0  0  0  0
   -3.9108   -0.3073   -0.3190 C   0  0  0  0  0  0  0  0  0  0  0  0
   -2.9829    0.0653   -1.4078 C   0  0  0  0  0  0  0  0  0  0  0  0
   -3.4018    0.8606   -2.2941 O   0  0  0  0  0  0  0  0  0  0  0  0
   -1.6342   -0.4573   -1.4793 N   0  0  0  0  0  0  0  0  0  0  0  0
   -0.8152   -0.2124   -2.6716 C   0  0  0  0  0  0  0  0  0  0  0  0
   -0.0293   -1.4701   -3.0440 C   0  0  0  0  0  0  0  0  0  0  0  0
    0.7138   -2.1488   -1.8583 C   0  0  0  0  0  0  0  0  0  0  0  0
    2.1190   -1.7028   -1.6540 N   0  0  0  0  0  0  0  0  0  0  0  0
    3.0206   -1.9663   -2.8072 C   0  0  0  0  0  0  0  0  0  0  0  0
    3.5715   -0.6746   -3.4251 C   0  0  0  0  0  0  0  0  0  0  0  0
    4.3771    0.1330   -2.3956 C   0  0  0  0  0  0  0  0  0  0  0  0
    3.8227   -0.0155   -0.9553 C   0  0  0  0  0  0  0  0  0  0  0  0
    2.3333   -0.4139   -0.9520 C   0  0  0  0  0  0  0  0  0  0  0  0
    4.6039   -1.0048   -0.2079 N   0  0  0  0  0  0  0  0  0  0  0  0
    5.1959   -0.4532    0.8081 C   0  0  0  0  0  0  0  0  0  0  0  0
    6.0533   -1.2620    1.7356 C   0  0  0  0  0  0  0  0  0  0  0  0
    4.9173    0.9452    0.9576 N   0  0  0  0  0  0  0  0  0  0  0  0
    5.6701    1.9740    1.6917 C   0  0  0  0  0  0  0  0  0  0  0  0
    5.8154    1.6275    3.1758 C   0  0  0  0  0  0  0  0  0  0  0  0
    7.0276    2.2208    1.0317 C   0  0  0  0  0  0  0  0  0  0  0  0
    4.0641    1.2157   -0.1459 C   0  0  0  0  0  0  0  0  0  0  0  0
    3.5954    2.3575   -0.4057 O   0  0  0  0  0  0  0  0  0  0  0  0
   -0.1222   -2.1796   -0.5517 C   0  0  0  0  0  0  0  0  0  0  0  0
   -0.9150   -0.8933   -0.2745 C   0  0  0  0  0  0  0  0  0  0  0  0
   -5.1457    5.5048    3.2870 H   0  0  0  0  0  0  0  0  0  0  0  0
   -6.7407    6.3339    3.1062 H   0  0  0  0  0  0  0  0  0  0  0  0
   -6.6652    4.5334    3.1243 H   0  0  0  0  0  0  0  0  0  0  0  0
   -5.5638    6.4525    0.9780 H   0  0  0  0  0  0  0  0  0  0  0  0
   -6.9552    5.3316    0.7791 H   0  0  0  0  0  0  0  0  0  0  0  0
   -4.1156    4.6996    0.4642 H   0  0  0  0  0  0  0  0  0  0  0  0
   -3.5811    2.4227   -0.1089 H   0  0  0  0  0  0  0  0  0  0  0  0
   -5.7918   -6.1008    0.8249 H   0  0  0  0  0  0  0  0  0  0  0  0
   -4.8464   -5.7316    2.3207 H   0  0  0  0  0  0  0  0  0  0  0  0
   -6.5692   -5.2005    2.1795 H   0  0  0  0  0  0  0  0  0  0  0  0
   -3.8665   -4.9651   -0.4567 H   0  0  0  0  0  0  0  0  0  0  0  0
   -3.0999   -2.7991   -1.3901 H   0  0  0  0  0  0  0  0  0  0  0  0
   -0.1388    0.6479   -2.4936 H   0  0  0  0  0  0  0  0  0  0  0  0
   -1.4458    0.0563   -3.5473 H   0  0  0  0  0  0  0  0  0  0  0  0
    0.6566   -1.2313   -3.8780 H   0  0  0  0  0  0  0  0  0  0  0  0
   -0.7619   -2.2049   -3.4491 H   0  0  0  0  0  0  0  0  0  0  0  0
    0.7902   -3.2230   -2.1477 H   0  0  0  0  0  0  0  0  0  0  0  0
    3.8729   -2.5809   -2.4460 H   0  0  0  0  0  0  0  0  0  0  0  0
    2.5232   -2.5648   -3.6018 H   0  0  0  0  0  0  0  0  0  0  0  0
    4.2192   -0.9199   -4.2944 H   0  0  0  0  0  0  0  0  0  0  0  0
    2.7237   -0.0584   -3.7934 H   0  0  0  0  0  0  0  0  0  0  0  0
    4.3794    1.1975   -2.7184 H   0  0  0  0  0  0  0  0  0  0  0  0
    5.4349   -0.2064   -2.4174 H   0  0  0  0  0  0  0  0  0  0  0  0
    1.7482    0.3969   -1.4275 H   0  0  0  0  0  0  0  0  0  0  0  0
    2.0064   -0.5148    0.1060 H   0  0  0  0  0  0  0  0  0  0  0  0
    7.0793   -0.8517    1.7839 H   0  0  0  0  0  0  0  0  0  0  0  0
    5.6016   -1.2745    2.7511 H   0  0  0  0  0  0  0  0  0  0  0  0
    6.1245   -2.3086    1.3754 H   0  0  0  0  0  0  0  0  0  0  0  0
    5.0964    2.9273    1.6461 H   0  0  0  0  0  0  0  0  0  0  0  0
    6.0786    2.5417    3.7512 H   0  0  0  0  0  0  0  0  0  0  0  0
    6.6196    0.8822    3.3451 H   0  0  0  0  0  0  0  0  0  0  0  0
    4.8567    1.2285    3.5721 H   0  0  0  0  0  0  0  0  0  0  0  0
    7.6592    1.3091    1.0592 H   0  0  0  0  0  0  0  0  0  0  0  0
    6.8842    2.5190   -0.0286 H   0  0  0  0  0  0  0  0  0  0  0  0
    7.5607    3.0432    1.5552 H   0  0  0  0  0  0  0  0  0  0  0  0
   -0.8521   -3.0113   -0.6338 H   0  0  0  0  0  0  0  0  0  0  0  0
    0.5241   -2.4159    0.3212 H   0  0  0  0  0  0  0  0  0  0  0  0
   -0.2404   -0.0828    0.0603 H   0  0  0  0  0  0  0  0  0  0  0  0
   -1.6065   -1.0904    0.5674 H   0  0  0  0  0  0  0  0  0  0  0  0
  1  2  1  0
  2  3  1  0
  3  4  1  0
  4  5  2  0
  4  6  1  0
  6  7  1  0
  7  8  1  0
  8  9  1  0
  9 10  2  0
 10 11  1  0
 11 12  1  0
 11 13  2  0
 13 14  1  0
 14 15  2  0
 15 16  1  0
 16 17  1  0
 17 18  2  0
 17 19  1  0
 19 20  1  0
 20 21  1  0
 21 22  1  0
 22 23  1  0
 23 24  1  0
 24 25  1  0
 25 26  1  0
 26 27  1  0
 27 28  1  0
 27 29  1  0
 29 30  2  0
 30 31  1  0
 30 32  1  0
 32 33  1  0
 33 34  1  0
 33 35  1  0
 32 36  1  0
 36 37  2  0
 22 38  1  0
 38 39  1  0
 16  7  2  0
 39 19  1  0
 15  9  1  0
 28 23  1  0
 36 27  1  0
  1 40  1  0
  1 41  1  0
  1 42  1  0
  2 43  1  0
  2 44  1  0
  3 45  1  0
  6 46  1  0
 12 47  1  0
 12 48  1  0
 12 49  1  0
 13 50  1  0
 14 51  1  0
 20 52  1  0
 20 53  1  0
 21 54  1  0
 21 55  1  0
 22 56  1  0
 24 57  1  0
 24 58  1  0
 25 59  1  0
 25 60  1  0
 26 61  1  0
 26 62  1  0
 28 63  1  0
 28 64  1  0
 31 65  1  0
 31 66  1  0
 31 67  1  0
 33 68  1  0
 34 69  1  0
 34 70  1  0
 34 71  1  0
 35 72  1  0
 35 73  1  0
 35 74  1  0
 38 75  1  0
 38 76  1  0
 39 77  1  0
 39 78  1  0
M  END
$$$$

     RDKit          3D

 67 71  0  0  0  0  0  0  0  0999 V2000
   -6.4892    1.2623   -1.7601 C   0  0  0  0  0  0  0  0  0  0  0  0
   -5.8273    0.8227   -0.5268 N   0  0  0  0  0  0  0  0  0  0  0  0
   -6.3101    1.2481    0.7688 C   0  0  0  0  0  0  0  0  0  0  0  0
   -5.6779    0.9312    1.8148 O   0  0  0  0  0  0  0  0  0  0  0  0
   -7.5325    2.0605    0.9130 C   0  0  0  0  0  0  0  0  0  0  0  0
   -7.4606    3.3309    1.5058 C   0  0  0  0  0  0  0  0  0  0  0  0
   -8.6158    4.1077    1.6412 C   0  0  0  0  0  0  0  0  0  0  0  0
   -9.8493    3.6141    1.2033 C   0  0  0  0  0  0  0  0  0  0  0  0
   -9.9309    2.3378    0.6393 C   0  0  0  0  0  0  0  0  0  0  0  0
   -8.7774    1.5589    0.4997 C   0  0  0  0  0  0  0  0  0  0  0  0
   -4.6517   -0.0030   -0.6289 C   0  0  0  0  0  0  0  0  0  0  0  0
   -4.7044   -1.2218   -1.3527 C   0  0  0  0  0  0  0  0  0  0  0  0
   -3.5597   -2.0271   -1.4932 C   0  0  0  0  0  0  0  0  0  0  0  0
   -2.3763   -1.5884   -0.8936 C   0  0  0  0  0  0  0  0  0  0  0  0
   -2.3201   -0.4112   -0.2004 C   0  0  0  0  0  0  0  0  0  0  0  0
   -3.4323    0.4132   -0.0477 C   0  0  0  0  0  0  0  0  0  0  0  0
   -1.0646   -0.1874    0.2237 N   0  0  0  0  0  0  0  0  0  0  0  0
   -0.3684   -1.2629   -0.2335 C   0  0  0  0  0  0  0  0  0  0  0  0
    0.9205   -1.4173   -0.1131 N   0  0  0  0  0  0  0  0  0  0  0  0
    1.8397   -0.5767    0.5996 C   0  0  0  0  0  0  0  0  0  0  0  0
    1.4498    0.1532    1.5503 O   0  0  0  0  0  0  0  0  0  0  0  0
    3.2652   -0.6028    0.2467 C   0  0  0  0  0  0  0  0  0  0  0  0
    3.8478   -1.3824   -0.7473 C   0  0  0  0  0  0  0  0  0  0  0  0
    5.2220   -1.1559   -0.8950 C   0  0  0  0  0  0  0  0  0  0  0  0
    5.7237   -0.2008   -0.0176 C   0  0  0  0  0  0  0  0  0  0  0  0
    7.1243    0.2586    0.0123 C   0  0  0  0  0  0  0  0  0  0  0  0
    7.5562    1.1863    0.8752 C   0  0  0  0  0  0  0  0  0  0  0  0
    8.9446    1.6813    0.8800 C   0  0  0  0  0  0  0  0  0  0  0  0
    9.3113    2.6193    1.7941 N   0  0  0  0  0  0  0  0  0  0  0  0
   10.5750    3.1166    1.8230 C   0  0  0  0  0  0  0  0  0  0  0  0
   11.5236    2.6669    0.8990 C   0  0  0  0  0  0  0  0  0  0  0  0
   12.8566    3.1854    0.9039 N   0  0  0  0  0  0  0  0  0  0  0  0
   11.1318    1.7009   -0.0322 C   0  0  0  0  0  0  0  0  0  0  0  0
    9.8576    1.2297   -0.0249 N   0  0  0  0  0  0  0  0  0  0  0  0
    4.4552    0.3628    0.9417 S   0  0  0  0  0  0  0  0  0  0  0  0
   -1.1463   -2.1449   -0.9176 N   0  0  0  0  0  0  0  0  0  0  0  0
   -0.7131   -3.3835   -1.5772 C   0  0  0  0  0  0  0  0  0  0  0  0
   -0.3492   -4.4691   -0.5512 C   0  0  0  0  0  0  0  0  0  0  0  0
   -1.5231   -5.0070    0.2247 C   0  0  0  0  0  0  0  0  0  0  0  0
   -1.3078   -5.9994    1.2294 N   0  0  0  0  0  0  0  0  0  0  0  0
   -2.6955   -4.6068   -0.0049 O   0  0  0  0  0  0  0  0  0  0  0  0
   -5.8843    1.0004   -2.6564 H   0  0  0  0  0  0  0  0  0  0  0  0
   -7.4774    0.7701   -1.8579 H   0  0  0  0  0  0  0  0  0  0  0  0
   -6.6185    2.3644   -1.7488 H   0  0  0  0  0  0  0  0  0  0  0  0
   -6.5101    3.7246    1.8480 H   0  0  0  0  0  0  0  0  0  0  0  0
   -8.5553    5.0929    2.0850 H   0  0  0  0  0  0  0  0  0  0  0  0
  -10.7425    4.2160    1.3095 H   0  0  0  0  0  0  0  0  0  0  0  0
  -10.8887    1.9495    0.3163 H   0  0  0  0  0  0  0  0  0  0  0  0
   -8.8575    0.5622    0.0853 H   0  0  0  0  0  0  0  0  0  0  0  0
   -5.6335   -1.5408   -1.8083 H   0  0  0  0  0  0  0  0  0  0  0  0
   -3.6099   -2.9486   -2.0557 H   0  0  0  0  0  0  0  0  0  0  0  0
   -3.3517    1.3544    0.4816 H   0  0  0  0  0  0  0  0  0  0  0  0
   -0.7269    0.6623    0.7257 H   0  0  0  0  0  0  0  0  0  0  0  0
    3.2971   -2.0870   -1.3569 H   0  0  0  0  0  0  0  0  0  0  0  0
    5.8291   -1.6681   -1.6307 H   0  0  0  0  0  0  0  0  0  0  0  0
    7.8108   -0.1739   -0.7055 H   0  0  0  0  0  0  0  0  0  0  0  0
    6.8715    1.6110    1.5992 H   0  0  0  0  0  0  0  0  0  0  0  0
   10.8374    3.8628    2.5625 H   0  0  0  0  0  0  0  0  0  0  0  0
   13.5575    2.8690    0.1951 H   0  0  0  0  0  0  0  0  0  0  0  0
   13.1395    3.9192    1.5903 H   0  0  0  0  0  0  0  0  0  0  0  0
   11.8355    1.3265   -0.7643 H   0  0  0  0  0  0  0  0  0  0  0  0
   -1.4916   -3.7632   -2.2713 H   0  0  0  0  0  0  0  0  0  0  0  0
    0.1838   -3.1652   -2.1959 H   0  0  0  0  0  0  0  0  0  0  0  0
    0.4019   -4.0698    0.1632 H   0  0  0  0  0  0  0  0  0  0  0  0
    0.1231   -5.3178   -1.0915 H   0  0  0  0  0  0  0  0  0  0  0  0
   -0.3451   -6.3489    1.4332 H   0  0  0  0  0  0  0  0  0  0  0  0
   -2.1153   -6.4021    1.7547 H   0  0  0  0  0  0  0  0  0  0  0  0
  1  2  1  0
  2  3  1  0
  3  4  2  0
  3  5  1  0
  5  6  2  0
  6  7  1  0
  7  8  2  0
  8  9  1  0
  9 10  2  0
  2 11  1  0
 11 12  2  0
 12 13  1  0
 13 14  2  0
 14 15  1  0
 15 16  2  0
 15 17  1  0
 17 18  1  0
 18 19  2  0
 19 20  1  0
 20 21  2  0
 20 22  1  0
 22 23  2  0
 23 24  1  0
 24 25  2  0
 25 26  1  0
 26 27  2  0
 27 28  1  0
 28 29  2  0
 29 30  1  0
 30 31  2  0
 31 32  1  0
 31 33  1  0
 33 34  2  0
 25 35  1  0
 18 36  1  0
 36 37  1  0
 37 38  1  0
 38 39  1  0
 39 40  1  0
 39 41  2  0
 10  5  1  0
 16 11  1  0
 35 22  1  0
 36 14  1  0
 34 28  1  0
  1 42  1  0
  1 43  1  0
  1 44  1  0
  6 45  1  0
  7 46  1  0
  8 47  1  0
  9 48  1  0
 10 49  1  0
 12 50  1  0
 13 51  1  0
 16 52  1  0
 17 53  1  0
 23 54  1  0
 24 55  1  0
 26 56  1  0
 27 57  1  0
 30 58  1  0
 32 59  1  0
 32 60  1  0
 33 61  1  0
 37 62  1  0
 37 63  1  0
 38 64  1  0
 38 65  1  0
 40 66  1  0
 40 67  1  0
M  END
$$$$

     RDKit          3D

 52 56  0  0  0  0  0  0  0  0999 V2000
    1.1018    1.7142   -1.7015 O   0  0  0  0  0  0  0  0  0  0  0  0
    0.4501    0.9711   -0.9198 C   0  0  0  0  0  0  0  0  0  0  0  0
    1.0962   -0.1461   -0.2845 N   0  0  0  0  0  0  0  0  0  0  0  0
    2.4574   -0.5345   -0.5466 C   0  0  0  0  0  0  0  0  0  0  0  0
    2.9314   -0.5957   -1.8693 C   0  0  0  0  0  0  0  0  0  0  0  0
    4.2313   -1.0296   -2.1394 C   0  0  0  0  0  0  0  0  0  0  0  0
    4.6785   -1.0763   -3.4170 F   0  0  0  0  0  0  0  0  0  0  0  0
    5.0684   -1.4195   -1.0959 C   0  0  0  0  0  0  0  0  0  0  0  0
    4.6095   -1.3774    0.2218 C   0  0  0  0  0  0  0  0  0  0  0  0
    3.3047   -0.9428    0.5116 C   0  0  0  0  0  0  0  0  0  0  0  0
    2.8616   -0.8706    1.9204 C   0  0  0  0  0  0  0  0  0  0  0  0
    2.2477    0.1483    2.3341 O   0  0  0  0  0  0  0  0  0  0  0  0
    3.1036   -1.9507    2.8209 N   0  0  0  0  0  0  0  0  0  0  0  0
    2.7723   -2.2718    4.2204 C   0  0  0  0  0  0  0  0  0  0  0  0
    3.2941   -3.6686    4.1907 C   0  0  0  0  0  0  0  0  0  0  0  0
    3.6258   -3.3285    2.7760 C   0  0  0  0  0  0  0  0  0  0  0  0
   -0.9525    1.2967   -0.5786 C   0  0  0  0  0  0  0  0  0  0  0  0
   -1.3660    1.0679    0.6974 N   0  0  0  0  0  0  0  0  0  0  0  0
   -2.6340    1.3132    1.1178 C   0  0  0  0  0  0  0  0  0  0  0  0
   -2.9567    1.0287    2.5701 C   0  0  0  0  0  0  0  0  0  0  0  0
   -4.3643    0.5486    2.8972 C   0  0  0  0  0  0  0  0  0  0  0  0
   -3.9387    1.9678    3.2574 C   0  0  0  0  0  0  0  0  0  0  0  0
   -3.5571    1.8168    0.1858 C   0  0  0  0  0  0  0  0  0  0  0  0
   -3.1623    2.0373   -1.0932 N   0  0  0  0  0  0  0  0  0  0  0  0
   -1.8917    1.7922   -1.5137 C   0  0  0  0  0  0  0  0  0  0  0  0
   -1.5512    2.0311   -2.8909 N   0  0  0  0  0  0  0  0  0  0  0  0
   -2.4802    1.8508   -3.9748 C   0  0  0  0  0  0  0  0  0  0  0  0
   -2.3229    2.5750   -5.1617 C   0  0  0  0  0  0  0  0  0  0  0  0
   -3.1823    2.3841   -6.1963 N   0  0  0  0  0  0  0  0  0  0  0  0
   -4.1967    1.4851   -6.1065 C   0  0  0  0  0  0  0  0  0  0  0  0
   -4.3588    0.7555   -4.9729 N   0  0  0  0  0  0  0  0  0  0  0  0
   -3.5245    0.9161   -3.9116 C   0  0  0  0  0  0  0  0  0  0  0  0
    0.5703   -0.6715    0.4482 H   0  0  0  0  0  0  0  0  0  0  0  0
    2.2856   -0.3323   -2.6966 H   0  0  0  0  0  0  0  0  0  0  0  0
    6.0779   -1.7499   -1.3059 H   0  0  0  0  0  0  0  0  0  0  0  0
    5.2865   -1.6554    1.0177 H   0  0  0  0  0  0  0  0  0  0  0  0
    1.6730   -2.2308    4.3888 H   0  0  0  0  0  0  0  0  0  0  0  0
    3.3349   -1.6171    4.9210 H   0  0  0  0  0  0  0  0  0  0  0  0
    4.1920   -3.8131    4.8285 H   0  0  0  0  0  0  0  0  0  0  0  0
    2.4958   -4.4364    4.2822 H   0  0  0  0  0  0  0  0  0  0  0  0
    3.0596   -3.9443    2.0437 H   0  0  0  0  0  0  0  0  0  0  0  0
    4.7221   -3.3402    2.5862 H   0  0  0  0  0  0  0  0  0  0  0  0
   -2.1577    0.6256    3.2301 H   0  0  0  0  0  0  0  0  0  0  0  0
   -5.0859    0.4823    2.0571 H   0  0  0  0  0  0  0  0  0  0  0  0
   -4.4232   -0.1339    3.7717 H   0  0  0  0  0  0  0  0  0  0  0  0
   -3.7476    2.1152    4.3416 H   0  0  0  0  0  0  0  0  0  0  0  0
   -4.4018    2.7607    2.6335 H   0  0  0  0  0  0  0  0  0  0  0  0
   -4.5801    2.0351    0.4545 H   0  0  0  0  0  0  0  0  0  0  0  0
   -0.6362    2.4761   -3.1156 H   0  0  0  0  0  0  0  0  0  0  0  0
   -1.5225    3.2968   -5.2606 H   0  0  0  0  0  0  0  0  0  0  0  0
   -4.8706    1.3449   -6.9399 H   0  0  0  0  0  0  0  0  0  0  0  0
   -3.6667    0.2996   -3.0341 H   0  0  0  0  0  0  0  0  0  0  0  0
  1  2  2  0
  2  3  1  0
  3  4  1  0
  4  5  2  0
  5  6  1  0
  6  7  1  0
  6  8  2  0
  8  9  1  0
  9 10  2  0
 10 11  1  0
 11 12  2  0
 11 13  1  0
 13 14  1  0
 14 15  1  0
 15 16  1  0
  2 17  1  0
 17 18  2  0
 18 19  1  0
 19 20  1  0
 20 21  1  0
 21 22  1  0
 19 23  2  0
 23 24  1  0
 24 25  2  0
 25 26  1  0
 26 27  1  0
 27 28  2  0
 28 29  1  0
 29 30  2  0
 30 31  1  0
 31 32  2  0
 10  4  1  0
 16 13  1  0
 25 17  1  0
 32 27  1  0
 22 20  1  0
  3 33  1  0
  5 34  1  0
  8 35  1  0
  9 36  1  0
 14 37  1  0
 14 38  1  0
 15 39  1  0
 15 40  1  0
 16 41  1  0
 16 42  1  0
 20 43  1  0
 21 44  1  0
 21 45  1  0
 22 46  1  0
 22 47  1  0
 23 48  1  0
 26 49  1  0
 28 50  1  0
 30 51  1  0
 32 52  1  0
M  END
$$$$

     RDKit          3D

 47 51  0  0  0  0  0  0  0  0999 V2000
   -7.0174   -2.4351    1.1245 C   0  0  0  0  0  0  0  0  0  0  0  0
   -6.1078   -1.2629    0.9080 C   0  0  0  0  0  0  0  0  0  0  0  0
   -6.4987    0.0403    1.3109 C   0  0  0  0  0  0  0  0  0  0  0  0
   -5.6466    1.1398    1.1019 C   0  0  0  0  0  0  0  0  0  0  0  0
   -4.4159    0.9031    0.4964 C   0  0  0  0  0  0  0  0  0  0  0  0
   -3.4046    1.7727    0.1526 C   0  0  0  0  0  0  0  0  0  0  0  0
   -2.4240    0.9724   -0.4302 C   0  0  0  0  0  0  0  0  0  0  0  0
   -1.1654    1.4831   -0.9998 C   0  0  0  0  0  0  0  0  0  0  0  0
   -1.0211    2.7469   -1.4688 N   0  0  0  0  0  0  0  0  0  0  0  0
    0.2195    2.8864   -1.9204 N   0  0  0  0  0  0  0  0  0  0  0  0
    0.8718    1.7283   -1.7369 C   0  0  0  0  0  0  0  0  0  0  0  0
    2.1987    1.4364   -2.0328 C   0  0  0  0  0  0  0  0  0  0  0  0
    2.6775    0.1570   -1.7006 C   0  0  0  0  0  0  0  0  0  0  0  0
    1.8325   -0.7934   -1.0610 C   0  0  0  0  0  0  0  0  0  0  0  0
    2.3118   -2.0957   -0.6818 N   0  0  0  0  0  0  0  0  0  0  0  0
    3.9909   -2.5321   -0.6374 S   0  0  0  0  0  6  0  0  0  0  0  0
    4.5165   -2.6133   -2.0433 O   0  0  0  0  0  0  0  0  0  0  0  0
    4.1374   -3.8770    0.0165 O   0  0  0  0  0  0  0  0  0  0  0  0
    4.8935   -1.3468    0.3014 C   0  0  0  0  0  0  0  0  0  0  0  0
    6.1368   -0.8777   -0.1479 C   0  0  0  0  0  0  0  0  0  0  0  0
    6.8379    0.0758    0.5970 C   0  0  0  0  0  0  0  0  0  0  0  0
    6.3023    0.5620    1.7932 C   0  0  0  0  0  0  0  0  0  0  0  0
    5.0654    0.0941    2.2465 C   0  0  0  0  0  0  0  0  0  0  0  0
    4.3622   -0.8592    1.5036 C   0  0  0  0  0  0  0  0  0  0  0  0
    0.4894   -0.4524   -0.7828 C   0  0  0  0  0  0  0  0  0  0  0  0
    0.0396    0.8155   -1.1536 C   0  0  0  0  0  0  0  0  0  0  0  0
   -2.8146   -0.3249   -0.4638 N   0  0  0  0  0  0  0  0  0  0  0  0
   -4.0296   -0.3519    0.1089 C   0  0  0  0  0  0  0  0  0  0  0  0
   -4.8525   -1.4615    0.2933 C   0  0  0  0  0  0  0  0  0  0  0  0
   -7.2741   -2.8927    0.1465 H   0  0  0  0  0  0  0  0  0  0  0  0
   -6.5071   -3.1919    1.7564 H   0  0  0  0  0  0  0  0  0  0  0  0
   -7.9588   -2.1321    1.6295 H   0  0  0  0  0  0  0  0  0  0  0  0
   -7.4603    0.2030    1.7809 H   0  0  0  0  0  0  0  0  0  0  0  0
   -5.9414    2.1378    1.4004 H   0  0  0  0  0  0  0  0  0  0  0  0
   -3.3819    2.8452    0.2988 H   0  0  0  0  0  0  0  0  0  0  0  0
    0.6045    3.7644   -2.3337 H   0  0  0  0  0  0  0  0  0  0  0  0
    2.8437    2.1702   -2.4989 H   0  0  0  0  0  0  0  0  0  0  0  0
    3.7036   -0.0797   -1.9402 H   0  0  0  0  0  0  0  0  0  0  0  0
    1.6303   -2.8022   -0.3243 H   0  0  0  0  0  0  0  0  0  0  0  0
    6.5621   -1.2451   -1.0730 H   0  0  0  0  0  0  0  0  0  0  0  0
    7.7955    0.4385    0.2463 H   0  0  0  0  0  0  0  0  0  0  0  0
    6.8460    1.2998    2.3684 H   0  0  0  0  0  0  0  0  0  0  0  0
    4.6514    0.4704    3.1730 H   0  0  0  0  0  0  0  0  0  0  0  0
    3.4041   -1.2136    1.8621 H   0  0  0  0  0  0  0  0  0  0  0  0
   -0.1551   -1.1468   -0.2641 H   0  0  0  0  0  0  0  0  0  0  0  0
   -2.3158   -1.1334   -0.8956 H   0  0  0  0  0  0  0  0  0  0  0  0
   -4.5322   -2.4459   -0.0260 H   0  0  0  0  0  0  0  0  0  0  0  0
  1  2  1  0
  2  3  2  0
  3  4  1  0
  4  5  2  0
  5  6  1  0
  6  7  2  0
  7  8  1  0
  8  9  2  0
  9 10  1  0
 10 11  1  0
 11 12  2  0
 12 13  1  0
 13 14  2  0
 14 15  1  0
 15 16  1  0
 16 17  2  0
 16 18  2  0
 16 19  1  0
 19 20  2  0
 20 21  1  0
 21 22  2  0
 22 23  1  0
 23 24  2  0
 14 25  1  0
 25 26  2  0
  7 27  1  0
 27 28  1  0
 28 29  2  0
 29  2  1  0
 28  5  1  0
 26  8  1  0
 26 11  1  0
 24 19  1  0
  1 30  1  0
  1 31  1  0
  1 32  1  0
  3 33  1  0
  4 34  1  0
  6 35  1  0
 10 36  1  0
 12 37  1  0
 13 38  1  0
 15 39  1  0
 20 40  1  0
 21 41  1  0
 22 42  1  0
 23 43  1  0
 24 44  1  0
 25 45  1  0
 27 46  1  0
 29 47  1  0
M  END
$$$$

     RDKit          3D

 71 75  0  0  0  0  0  0  0  0999 V2000
    7.0316    4.8345    0.4908 C   0  0  0  0  0  0  0  0  0  0  0  0
    5.9949    4.4986    1.5574 C   0  0  0  0  0  0  0  0  0  0  0  0
    5.0715    3.4727    1.0766 N   0  0  0  0  0  0  0  0  0  0  0  0
    5.4421    2.0921    0.9498 C   0  0  0  0  0  0  0  0  0  0  0  0
    6.6088    1.7244    1.2549 O   0  0  0  0  0  0  0  0  0  0  0  0
    4.4795    1.1439    0.4628 N   0  0  0  0  0  0  0  0  0  0  0  0
    4.7004   -0.2757    0.3765 C   0  0  0  0  0  0  0  0  0  0  0  0
    5.9277   -1.1316    1.1719 S   0  0  0  0  0  0  0  0  0  0  0  0
    5.4151   -2.6437    0.6603 C   0  0  0  0  0  0  0  0  0  0  0  0
    5.9945   -3.8799    0.9349 C   0  0  0  0  0  0  0  0  0  0  0  0
    5.4065   -5.0265    0.3822 C   0  0  0  0  0  0  0  0  0  0  0  0
    4.2658   -4.9162   -0.4339 C   0  0  0  0  0  0  0  0  0  0  0  0
    3.6990   -3.6589   -0.6996 C   0  0  0  0  0  0  0  0  0  0  0  0
    4.2791   -2.5160   -0.1292 C   0  0  0  0  0  0  0  0  0  0  0  0
    3.8551   -1.1804   -0.2835 C   0  0  0  0  0  0  0  0  0  0  0  0
    2.6601   -0.7729   -1.0516 C   0  0  0  0  0  0  0  0  0  0  0  0
    2.7700    0.1512   -1.9023 O   0  0  0  0  0  0  0  0  0  0  0  0
    1.3803   -1.4025   -0.8392 N   0  0  0  0  0  0  0  0  0  0  0  0
    1.0026   -1.9616    0.4628 C   0  0  0  0  0  0  0  0  0  0  0  0
   -0.2987   -1.3156    0.9424 C   0  0  0  0  0  0  0  0  0  0  0  0
   -1.4272   -1.4423   -0.1134 C   0  0  0  0  0  0  0  0  0  0  0  0
   -2.6677   -0.8025    0.4208 N   0  0  0  0  0  0  0  0  0  0  0  0
   -3.2960   -1.6230    1.5012 C   0  0  0  0  0  0  0  0  0  0  0  0
   -4.7160   -2.1076    1.1768 C   0  0  0  0  0  0  0  0  0  0  0  0
   -5.6480   -0.9343    0.8573 C   0  0  0  0  0  0  0  0  0  0  0  0
   -4.9485    0.1551    0.0018 C   0  0  0  0  0  0  0  0  0  0  0  0
   -3.6278   -0.3498   -0.6187 C   0  0  0  0  0  0  0  0  0  0  0  0
   -4.7319    1.4322    0.7820 C   0  0  0  0  0  0  0  0  0  0  0  0
   -4.0302    1.5259    1.8247 O   0  0  0  0  0  0  0  0  0  0  0  0
   -5.4268    2.5365    0.2104 N   0  0  0  0  0  0  0  0  0  0  0  0
   -5.6141    3.8377    0.8449 C   0  0  0  0  0  0  0  0  0  0  0  0
   -6.1689    2.0716   -0.8782 N   0  0  0  0  0  0  0  0  0  0  0  0
   -6.8419    2.9316   -1.8477 C   0  0  0  0  0  0  0  0  0  0  0  0
   -5.8711    0.6906   -1.0655 C   0  0  0  0  0  0  0  0  0  0  0  0
   -6.3211    0.0102   -2.0268 O   0  0  0  0  0  0  0  0  0  0  0  0
   -0.9239   -0.8167   -1.4464 C   0  0  0  0  0  0  0  0  0  0  0  0
    0.3833   -1.4661   -1.9106 C   0  0  0  0  0  0  0  0  0  0  0  0
    7.6629    3.9494    0.2669 H   0  0  0  0  0  0  0  0  0  0  0  0
    7.6865    5.6535    0.8549 H   0  0  0  0  0  0  0  0  0  0  0  0
    6.5258    5.1668   -0.4406 H   0  0  0  0  0  0  0  0  0  0  0  0
    5.4237    5.4212    1.7985 H   0  0  0  0  0  0  0  0  0  0  0  0
    6.4975    4.1534    2.4869 H   0  0  0  0  0  0  0  0  0  0  0  0
    4.0851    3.7507    0.8726 H   0  0  0  0  0  0  0  0  0  0  0  0
    3.5566    1.5191    0.1504 H   0  0  0  0  0  0  0  0  0  0  0  0
    6.8780   -3.9553    1.5551 H   0  0  0  0  0  0  0  0  0  0  0  0
    5.8368   -5.9999    0.5784 H   0  0  0  0  0  0  0  0  0  0  0  0
    3.8248   -5.8057   -0.8645 H   0  0  0  0  0  0  0  0  0  0  0  0
    2.8333   -3.5890   -1.3441 H   0  0  0  0  0  0  0  0  0  0  0  0
    0.8631   -3.0601    0.3675 H   0  0  0  0  0  0  0  0  0  0  0  0
    1.7877   -1.7797    1.2270 H   0  0  0  0  0  0  0  0  0  0  0  0
   -0.5865   -1.7952    1.9000 H   0  0  0  0  0  0  0  0  0  0  0  0
   -0.1128   -0.2397    1.1530 H   0  0  0  0  0  0  0  0  0  0  0  0
   -1.6240   -2.5219   -0.3101 H   0  0  0  0  0  0  0  0  0  0  0  0
   -3.3306   -1.0129    2.4285 H   0  0  0  0  0  0  0  0  0  0  0  0
   -2.6996   -2.5278    1.7491 H   0  0  0  0  0  0  0  0  0  0  0  0
   -5.1217   -2.6765    2.0412 H   0  0  0  0  0  0  0  0  0  0  0  0
   -4.6745   -2.8023    0.3096 H   0  0  0  0  0  0  0  0  0  0  0  0
   -6.5349   -1.3467    0.3261 H   0  0  0  0  0  0  0  0  0  0  0  0
   -6.0286   -0.5038    1.8109 H   0  0  0  0  0  0  0  0  0  0  0  0
   -3.8471   -1.1825   -1.3247 H   0  0  0  0  0  0  0  0  0  0  0  0
   -3.1837    0.4893   -1.1981 H   0  0  0  0  0  0  0  0  0  0  0  0
   -4.7685    4.0580    1.5296 H   0  0  0  0  0  0  0  0  0  0  0  0
   -6.5626    3.8367    1.4215 H   0  0  0  0  0  0  0  0  0  0  0  0
   -5.6495    4.6350    0.0742 H   0  0  0  0  0  0  0  0  0  0  0  0
   -7.4971    2.3289   -2.5117 H   0  0  0  0  0  0  0  0  0  0  0  0
   -6.0848    3.4613   -2.4629 H   0  0  0  0  0  0  0  0  0  0  0  0
   -7.4747    3.6738   -1.3185 H   0  0  0  0  0  0  0  0  0  0  0  0
   -1.6664   -0.9712   -2.2571 H   0  0  0  0  0  0  0  0  0  0  0  0
   -0.7611    0.2758   -1.3155 H   0  0  0  0  0  0  0  0  0  0  0  0
    0.1972   -2.5313   -2.1706 H   0  0  0  0  0  0  0  0  0  0  0  0
    0.7411   -0.9564   -2.8308 H   0  0  0  0  0  0  0  0  0  0  0  0
  1  2  1  0
  2  3  1  0
  3  4  1  0
  4  5  2  0
  4  6  1  0
  6  7  1  0
  7  8  1  0
  8  9  1  0
  9 10  2  0
 10 11  1  0
 11 12  2  0
 12 13  1  0
 13 14  2  0
 14 15  1  0
 15 16  1  0
 16 17  2  0
 16 18  1  0
 18 19  1  0
 19 20  1  0
 20 21  1  0
 21 22  1  0
 22 23  1  0
 23 24  1  0
 24 25  1  0
 25 26  1  0
 26 27  1  0
 26 28  1  0
 28 29  2  0
 28 30  1  0
 30 31  1  0
 30 32  1  0
 32 33  1  0
 32 34  1  0
 34 35  2  0
 21 36  1  0
 36 37  1  0
 15  7  2  0
 37 18  1  0
 14  9  1  0
 27 22  1  0
 34 26  1  0
  1 38  1  0
  1 39  1  0
  1 40  1  0
  2 41  1  0
  2 42  1  0
  3 43  1  0
  6 44  1  0
 10 45  1  0
 11 46  1  0
 12 47  1  0
 13 48  1  0
 19 49  1  0
 19 50  1  0
 20 51  1  0
 20 52  1  0
 21 53  1  0
 23 54  1  0
 23 55  1  0
 24 56  1  0
 24 57  1  0
 25 58  1  0
 25 59  1  0
 27 60  1  0
 27 61  1  0
 31 62  1  0
 31 63  1  0
 31 64  1  0
 33 65  1  0
 33 66  1  0
 33 67  1  0
 36 68  1  0
 36 69  1  0
 37 70  1  0
 37 71  1  0
M  END
$$$$

     RDKit          3D

 51 54  0  0  0  0  0  0  0  0999 V2000
    4.0715   -3.1675    1.8742 C   0  0  0  0  0  0  0  0  0  0  0  0
    3.8917   -2.4874    0.5889 N   0  0  0  0  0  0  0  0  0  0  0  0
    3.9194   -3.2543   -0.6619 C   0  0  0  0  0  0  0  0  0  0  0  0
    3.6007   -1.0745    0.5754 C   0  0  0  0  0  0  0  0  0  0  0  0
    3.2838   -0.4873    1.6461 O   0  0  0  0  0  0  0  0  0  0  0  0
    3.6421   -0.2889   -0.6753 C   0  0  0  0  0  0  0  0  0  0  0  0
    2.4782    0.3434   -1.1701 C   0  0  0  0  0  0  0  0  0  0  0  0
    1.2146    0.1638   -0.5051 N   0  0  0  0  0  0  0  0  0  0  0  0
    0.2627    1.2221   -0.3103 C   0  0  0  0  0  0  0  0  0  0  0  0
    0.5555    2.4042   -0.6339 O   0  0  0  0  0  0  0  0  0  0  0  0
   -1.0112    0.9402    0.3797 C   0  0  0  0  0  0  0  0  0  0  0  0
   -0.9779    0.1180    1.4628 N   0  0  0  0  0  0  0  0  0  0  0  0
   -2.0848   -0.1964    2.1841 C   0  0  0  0  0  0  0  0  0  0  0  0
   -1.9077   -1.1195    3.3720 C   0  0  0  0  0  0  0  0  0  0  0  0
   -3.0594   -2.0531    3.7172 C   0  0  0  0  0  0  0  0  0  0  0  0
   -2.7684   -0.8432    4.5966 C   0  0  0  0  0  0  0  0  0  0  0  0
   -3.3138    0.3571    1.7886 C   0  0  0  0  0  0  0  0  0  0  0  0
   -3.3637    1.1607    0.6973 N   0  0  0  0  0  0  0  0  0  0  0  0
   -2.2573    1.4656   -0.0344 C   0  0  0  0  0  0  0  0  0  0  0  0
   -2.3911    2.2888   -1.2094 N   0  0  0  0  0  0  0  0  0  0  0  0
   -3.6351    2.4732   -1.9075 C   0  0  0  0  0  0  0  0  0  0  0  0
   -3.9088    3.6885   -2.5459 C   0  0  0  0  0  0  0  0  0  0  0  0
   -5.0745    3.8571   -3.2221 N   0  0  0  0  0  0  0  0  0  0  0  0
   -5.9838    2.8523   -3.3060 C   0  0  0  0  0  0  0  0  0  0  0  0
   -5.7304    1.6539   -2.7202 N   0  0  0  0  0  0  0  0  0  0  0  0
   -4.5787    1.4420   -2.0317 C   0  0  0  0  0  0  0  0  0  0  0  0
    2.5548    1.0927   -2.3580 C   0  0  0  0  0  0  0  0  0  0  0  0
    3.7725    1.2416   -3.0246 C   0  0  0  0  0  0  0  0  0  0  0  0
    4.9267    0.6403   -2.5185 C   0  0  0  0  0  0  0  0  0  0  0  0
    6.1088    0.8003   -3.1635 F   0  0  0  0  0  0  0  0  0  0  0  0
    4.8658   -0.1203   -1.3473 C   0  0  0  0  0  0  0  0  0  0  0  0
    6.0049   -0.6701   -0.8518 F   0  0  0  0  0  0  0  0  0  0  0  0
    4.9156   -2.7041    2.4255 H   0  0  0  0  0  0  0  0  0  0  0  0
    4.2987   -4.2457    1.7407 H   0  0  0  0  0  0  0  0  0  0  0  0
    3.1454   -3.0779    2.4802 H   0  0  0  0  0  0  0  0  0  0  0  0
    3.9750   -4.3463   -0.4724 H   0  0  0  0  0  0  0  0  0  0  0  0
    4.8033   -2.9647   -1.2658 H   0  0  0  0  0  0  0  0  0  0  0  0
    2.9946   -3.0583   -1.2454 H   0  0  0  0  0  0  0  0  0  0  0  0
    1.0106   -0.7677   -0.0769 H   0  0  0  0  0  0  0  0  0  0  0  0
   -0.8958   -1.5211    3.5947 H   0  0  0  0  0  0  0  0  0  0  0  0
   -3.9823   -1.9687    3.1078 H   0  0  0  0  0  0  0  0  0  0  0  0
   -2.7464   -3.0181    4.1696 H   0  0  0  0  0  0  0  0  0  0  0  0
   -2.2861   -1.1007    5.5634 H   0  0  0  0  0  0  0  0  0  0  0  0
   -3.5150   -0.0263    4.5163 H   0  0  0  0  0  0  0  0  0  0  0  0
   -4.2295    0.1571    2.3246 H   0  0  0  0  0  0  0  0  0  0  0  0
   -1.5811    2.8570   -1.5399 H   0  0  0  0  0  0  0  0  0  0  0  0
   -3.1998    4.5050   -2.4948 H   0  0  0  0  0  0  0  0  0  0  0  0
   -6.9077    3.0046   -3.8462 H   0  0  0  0  0  0  0  0  0  0  0  0
   -4.3945    0.4664   -1.6030 H   0  0  0  0  0  0  0  0  0  0  0  0
    1.6676    1.5438   -2.7833 H   0  0  0  0  0  0  0  0  0  0  0  0
    3.8203    1.8225   -3.9366 H   0  0  0  0  0  0  0  0  0  0  0  0
  1  2  1  0
  2  3  1  0
  2  4  1  0
  4  5  2  0
  4  6  1  0
  6  7  2  0
  7  8  1  0
  8  9  1  0
  9 10  2  0
  9 11  1  0
 11 12  2  0
 12 13  1  0
 13 14  1  0
 14 15  1  0
 15 16  1  0
 13 17  2  0
 17 18  1  0
 18 19  2  0
 19 20  1  0
 20 21  1  0
 21 22  2  0
 22 23  1  0
 23 24  2  0
 24 25  1  0
 25 26  2  0
  7 27  1  0
 27 28  2  0
 28 29  1  0
 29 30  1  0
 29 31  2  0
 31 32  1  0
 31  6  1  0
 19 11  1  0
 26 21  1  0
 16 14  1  0
  1 33  1  0
  1 34  1  0
  1 35  1  0
  3 36  1  0
  3 37  1  0
  3 38  1  0
  8 39  1  0
 14 40  1  0
 15 41  1  0
 15 42  1  0
 16 43  1  0
 16 44  1  0
 17 45  1  0
 20 46  1  0
 22 47  1  0
 24 48  1  0
 26 49  1  0
 27 50  1  0
 28 51  1  0
M  END
$$$$

     RDKit          3D

 68 73  0  0  0  0  0  0  0  0999 V2000
   -6.7333   -5.4826   -2.5615 C   0  0  0  0  0  0  0  0  0  0  0  0
   -5.8333   -5.4310   -1.3699 C   0  0  0  0  0  0  0  0  0  0  0  0
   -5.7155   -6.4458   -0.6310 O   0  0  0  0  0  0  0  0  0  0  0  0
   -5.1120   -4.2325   -1.0722 N   0  0  0  0  0  0  0  0  0  0  0  0
   -4.0097   -4.1414    0.2600 S   0  0  0  0  0  6  0  0  0  0  0  0
   -3.0232   -5.2738    0.1886 O   0  0  0  0  0  0  0  0  0  0  0  0
   -4.7798   -4.2354    1.5479 O   0  0  0  0  0  0  0  0  0  0  0  0
   -3.1306   -2.6177    0.1860 C   0  0  0  0  0  0  0  0  0  0  0  0
   -3.3081   -1.6393    1.1729 C   0  0  0  0  0  0  0  0  0  0  0  0
   -2.5980   -0.4376    1.1071 C   0  0  0  0  0  0  0  0  0  0  0  0
   -1.6943   -0.2064    0.0597 C   0  0  0  0  0  0  0  0  0  0  0  0
   -0.9304    1.0551    0.0195 C   0  0  0  0  0  0  0  0  0  0  0  0
    0.4518    1.2249   -0.0030 C   0  0  0  0  0  0  0  0  0  0  0  0
    1.4959    0.1501   -0.0603 C   0  0  0  0  0  0  0  0  0  0  0  0
    1.6636   -0.5370    1.3027 C   0  0  0  0  0  0  0  0  0  0  0  0
    2.6773   -1.6542    1.2711 C   0  0  0  0  0  0  0  0  0  0  0  0
    2.9562   -2.3741    2.4431 C   0  0  0  0  0  0  0  0  0  0  0  0
    3.8899   -3.4138    2.4129 C   0  0  0  0  0  0  0  0  0  0  0  0
    4.5386   -3.7328    1.2127 C   0  0  0  0  0  0  0  0  0  0  0  0
    5.4774   -4.7729    1.1436 C   0  0  0  0  0  0  0  0  0  0  0  0
    6.1000   -5.0703   -0.0734 C   0  0  0  0  0  0  0  0  0  0  0  0
    5.7954   -4.3284   -1.2210 C   0  0  0  0  0  0  0  0  0  0  0  0
    4.8606   -3.2903   -1.1615 C   0  0  0  0  0  0  0  0  0  0  0  0
    4.2305   -2.9888    0.0509 C   0  0  0  0  0  0  0  0  0  0  0  0
    3.3194   -1.9825    0.1128 N   0  0  0  0  0  0  0  0  0  0  0  0
    0.7577    2.5433    0.0936 N   0  0  0  0  0  0  0  0  0  0  0  0
   -0.4460    3.1520    0.1478 C   0  0  0  0  0  0  0  0  0  0  0  0
   -0.6947    4.5303    0.2421 C   0  0  0  0  0  0  0  0  0  0  0  0
    0.3641    5.5106    0.3326 N   0  0  0  0  0  0  0  0  0  0  0  0
    0.3290    6.5228    1.3986 C   0  0  0  0  0  0  0  0  0  0  0  0
    1.0831    7.7780    0.9432 C   0  0  0  0  0  0  0  0  0  0  0  0
    2.3875    7.4471    0.5058 O   0  0  0  0  0  0  0  0  0  0  0  0
    2.3091    6.6495   -0.6612 C   0  0  0  0  0  0  0  0  0  0  0  0
    1.6449    5.3010   -0.3578 C   0  0  0  0  0  0  0  0  0  0  0  0
   -2.0498    4.9227    0.2552 C   0  0  0  0  0  0  0  0  0  0  0  0
   -3.0691    3.9538    0.2062 C   0  0  0  0  0  0  0  0  0  0  0  0
   -2.7464    2.6323    0.1383 N   0  0  0  0  0  0  0  0  0  0  0  0
   -1.4636    2.2808    0.1138 N   0  0  0  0  0  0  0  0  0  0  0  0
   -1.5338   -1.1777   -0.9392 C   0  0  0  0  0  0  0  0  0  0  0  0
   -2.2500   -2.3768   -0.8760 C   0  0  0  0  0  0  0  0  0  0  0  0
   -7.5281   -4.7138   -2.4587 H   0  0  0  0  0  0  0  0  0  0  0  0
   -7.2128   -6.4811   -2.6488 H   0  0  0  0  0  0  0  0  0  0  0  0
   -6.1429   -5.2843   -3.4793 H   0  0  0  0  0  0  0  0  0  0  0  0
   -5.2204   -3.3968   -1.6915 H   0  0  0  0  0  0  0  0  0  0  0  0
   -3.9970   -1.7997    1.9934 H   0  0  0  0  0  0  0  0  0  0  0  0
   -2.7425    0.3070    1.8808 H   0  0  0  0  0  0  0  0  0  0  0  0
    1.2196   -0.5949   -0.8345 H   0  0  0  0  0  0  0  0  0  0  0  0
    2.4643    0.6060   -0.3658 H   0  0  0  0  0  0  0  0  0  0  0  0
    1.9812    0.2175    2.0552 H   0  0  0  0  0  0  0  0  0  0  0  0
    0.6886   -0.9607    1.6277 H   0  0  0  0  0  0  0  0  0  0  0  0
    2.4494   -2.1347    3.3706 H   0  0  0  0  0  0  0  0  0  0  0  0
    4.0975   -3.9700    3.3208 H   0  0  0  0  0  0  0  0  0  0  0  0
    5.7270   -5.3513    2.0250 H   0  0  0  0  0  0  0  0  0  0  0  0
    6.8190   -5.8778   -0.1292 H   0  0  0  0  0  0  0  0  0  0  0  0
    6.2825   -4.5614   -2.1581 H   0  0  0  0  0  0  0  0  0  0  0  0
    4.6265   -2.7240   -2.0557 H   0  0  0  0  0  0  0  0  0  0  0  0
   -0.7127    6.8086    1.6603 H   0  0  0  0  0  0  0  0  0  0  0  0
    0.8249    6.1068    2.3047 H   0  0  0  0  0  0  0  0  0  0  0  0
    1.1640    8.4762    1.8034 H   0  0  0  0  0  0  0  0  0  0  0  0
    0.5144    8.3073    0.1457 H   0  0  0  0  0  0  0  0  0  0  0  0
    1.7629    7.1784   -1.4765 H   0  0  0  0  0  0  0  0  0  0  0  0
    3.3403    6.4628   -1.0283 H   0  0  0  0  0  0  0  0  0  0  0  0
    2.3205    4.7048    0.2952 H   0  0  0  0  0  0  0  0  0  0  0  0
    1.4847    4.7561   -1.3155 H   0  0  0  0  0  0  0  0  0  0  0  0
   -2.3220    5.9695    0.2833 H   0  0  0  0  0  0  0  0  0  0  0  0
   -4.1084    4.2558    0.2175 H   0  0  0  0  0  0  0  0  0  0  0  0
   -0.8731   -1.0008   -1.7784 H   0  0  0  0  0  0  0  0  0  0  0  0
   -2.1178   -3.1162   -1.6560 H   0  0  0  0  0  0  0  0  0  0  0  0
  1  2  1  0
  2  3  2  0
  2  4  1  0
  4  5  1  0
  5  6  2  0
  5  7  2  0
  5  8  1  0
  8  9  2  0
  9 10  1  0
 10 11  2  0
 11 12  1  0
 12 13  2  0
 13 14  1  0
 14 15  1  0
 15 16  1  0
 16 17  2  0
 17 18  1  0
 18 19  2  0
 19 20  1  0
 20 21  2  0
 21 22  1  0
 22 23  2  0
 23 24  1  0
 24 25  2  0
 13 26  1  0
 26 27  2  0
 27 28  1  0
 28 29  1  0
 29 30  1  0
 30 31  1  0
 31 32  1  0
 32 33  1  0
 33 34  1  0
 28 35  2  0
 35 36  1  0
 36 37  2  0
 37 38  1  0
 11 39  1  0
 39 40  2  0
 40  8  1  0
 38 12  1  0
 25 16  1  0
 38 27  1  0
 24 19  1  0
 34 29  1  0
  1 41  1  0
  1 42  1  0
  1 43  1  0
  4 44  1  0
  9 45  1  0
 10 46  1  0
 14 47  1  0
 14 48  1  0
 15 49  1  0
 15 50  1  0
 17 51  1  0
 18 52  1  0
 20 53  1  0
 21 54  1  0
 22 55  1  0
 23 56  1  0
 30 57  1  0
 30 58  1  0
 31 59  1  0
 31 60  1  0
 33 61  1  0
 33 62  1  0
 34 63  1  0
 34 64  1  0
 35 65  1  0
 36 66  1  0
 39 67  1  0
 40 68  1  0
M  END
$$$$

     RDKit          3D

 82 87  0  0  0  0  0  0  0  0999 V2000
   -9.4925   -0.6912    0.6550 C   0  0  0  0  0  0  0  0  0  0  0  0
   -8.1703    0.0551    0.8836 C   0  0  0  0  0  0  0  0  0  0  0  0
   -7.9573    0.3121    2.3827 C   0  0  0  0  0  0  0  0  0  0  0  0
   -6.9654   -0.7150    0.2632 C   0  0  0  0  0  0  0  0  0  0  0  0
   -6.2705    0.2614   -0.7311 C   0  0  0  0  0  0  0  0  0  0  0  0
   -6.1871   -0.3220   -2.1620 C   0  0  0  0  0  0  0  0  0  0  0  0
   -5.1387   -1.4389   -2.2453 C   0  0  0  0  0  0  0  0  0  0  0  0
   -3.7896   -0.9497   -1.7114 C   0  0  0  0  0  0  0  0  0  0  0  0
   -3.9404   -0.4834   -0.3126 N   0  0  0  0  0  0  0  0  0  0  0  0
   -2.6676   -0.2298    0.4174 C   0  0  0  0  0  0  0  0  0  0  0  0
   -1.9635   -1.5554    0.7789 C   0  0  0  0  0  0  0  0  0  0  0  0
   -0.6639   -1.2879    1.5486 C   0  0  0  0  0  0  0  0  0  0  0  0
    0.1792   -0.2937    0.8655 N   0  0  0  0  0  0  0  0  0  0  0  0
    1.5076   -0.0436    1.3705 C   0  0  0  0  0  0  0  0  0  0  0  0
    2.0867   -0.9167    2.0725 O   0  0  0  0  0  0  0  0  0  0  0  0
    2.2157    1.2215    1.0938 C   0  0  0  0  0  0  0  0  0  0  0  0
    3.4978    1.2844    0.5330 C   0  0  0  0  0  0  0  0  0  0  0  0
    4.2420    0.1494    0.0582 N   0  0  0  0  0  0  0  0  0  0  0  0
    5.6455    0.1709   -0.2423 C   0  0  0  0  0  0  0  0  0  0  0  0
    6.3556    1.1636    0.0841 O   0  0  0  0  0  0  0  0  0  0  0  0
    6.2439   -0.9540   -0.9009 N   0  0  0  0  0  0  0  0  0  0  0  0
    7.6924   -1.0590   -1.1121 C   0  0  0  0  0  0  0  0  0  0  0  0
    8.4107   -1.3222    0.2372 C   0  0  0  0  0  0  0  0  0  0  0  0
    9.7231   -2.1195    0.0933 C   0  0  0  0  0  0  0  0  0  0  0  0
   10.4094   -1.8420   -1.2480 C   0  0  0  0  0  0  0  0  0  0  0  0
    9.5179   -2.2468   -2.4399 C   0  0  0  0  0  0  0  0  0  0  0  0
    8.0077   -2.1671   -2.1330 C   0  0  0  0  0  0  0  0  0  0  0  0
    3.9597    2.9060    0.3582 S   0  0  0  0  0  0  0  0  0  0  0  0
    2.5515    3.5326    1.0209 C   0  0  0  0  0  0  0  0  0  0  0  0
    2.2244    4.8712    1.2243 C   0  0  0  0  0  0  0  0  0  0  0  0
    0.9914    5.1700    1.8222 C   0  0  0  0  0  0  0  0  0  0  0  0
    0.1204    4.1351    2.2110 C   0  0  0  0  0  0  0  0  0  0  0  0
    0.4720    2.7916    1.9977 C   0  0  0  0  0  0  0  0  0  0  0  0
    1.6969    2.4985    1.3826 C   0  0  0  0  0  0  0  0  0  0  0  0
   -0.2760    0.2993   -0.4029 C   0  0  0  0  0  0  0  0  0  0  0  0
   -1.7201    0.8017   -0.2714 C   0  0  0  0  0  0  0  0  0  0  0  0
   -4.8611    0.6717   -0.2423 C   0  0  0  0  0  0  0  0  0  0  0  0
   -7.1841    1.4354   -0.6967 C   0  0  0  0  0  0  0  0  0  0  0  0
   -7.0345    2.4718   -1.3974 O   0  0  0  0  0  0  0  0  0  0  0  0
   -8.2158    1.2989    0.2040 O   0  0  0  0  0  0  0  0  0  0  0  0
   -9.4658   -1.6902    1.1432 H   0  0  0  0  0  0  0  0  0  0  0  0
   -9.6713   -0.8300   -0.4331 H   0  0  0  0  0  0  0  0  0  0  0  0
  -10.3412   -0.1102    1.0737 H   0  0  0  0  0  0  0  0  0  0  0  0
   -7.0150    0.8794    2.5447 H   0  0  0  0  0  0  0  0  0  0  0  0
   -8.7990    0.9079    2.7962 H   0  0  0  0  0  0  0  0  0  0  0  0
   -7.8943   -0.6496    2.9354 H   0  0  0  0  0  0  0  0  0  0  0  0
   -6.2608   -1.0719    1.0478 H   0  0  0  0  0  0  0  0  0  0  0  0
   -7.3197   -1.6294   -0.2627 H   0  0  0  0  0  0  0  0  0  0  0  0
   -5.9026    0.4806   -2.8791 H   0  0  0  0  0  0  0  0  0  0  0  0
   -7.1762   -0.7160   -2.4841 H   0  0  0  0  0  0  0  0  0  0  0  0
   -5.0239   -1.7567   -3.3040 H   0  0  0  0  0  0  0  0  0  0  0  0
   -5.4710   -2.3217   -1.6573 H   0  0  0  0  0  0  0  0  0  0  0  0
   -3.4259   -0.1417   -2.3800 H   0  0  0  0  0  0  0  0  0  0  0  0
   -3.0796   -1.7961   -1.7778 H   0  0  0  0  0  0  0  0  0  0  0  0
   -2.9296    0.2080    1.4085 H   0  0  0  0  0  0  0  0  0  0  0  0
   -1.7079   -2.1397   -0.1276 H   0  0  0  0  0  0  0  0  0  0  0  0
   -2.6389   -2.1788    1.4036 H   0  0  0  0  0  0  0  0  0  0  0  0
   -0.1134   -2.2474    1.6515 H   0  0  0  0  0  0  0  0  0  0  0  0
   -0.9100   -0.9166    2.5667 H   0  0  0  0  0  0  0  0  0  0  0  0
    3.7359   -0.7561   -0.0694 H   0  0  0  0  0  0  0  0  0  0  0  0
    5.6147   -1.7132   -1.2474 H   0  0  0  0  0  0  0  0  0  0  0  0
    8.0623   -0.0989   -1.5407 H   0  0  0  0  0  0  0  0  0  0  0  0
    7.7381   -1.8815    0.9234 H   0  0  0  0  0  0  0  0  0  0  0  0
    8.6313   -0.3442    0.7176 H   0  0  0  0  0  0  0  0  0  0  0  0
   10.4109   -1.8561    0.9267 H   0  0  0  0  0  0  0  0  0  0  0  0
    9.5059   -3.2078    0.1663 H   0  0  0  0  0  0  0  0  0  0  0  0
   10.6448   -0.7569   -1.3135 H   0  0  0  0  0  0  0  0  0  0  0  0
   11.3703   -2.3984   -1.2959 H   0  0  0  0  0  0  0  0  0  0  0  0
    9.7544   -1.5831   -3.3016 H   0  0  0  0  0  0  0  0  0  0  0  0
    9.7638   -3.2877   -2.7451 H   0  0  0  0  0  0  0  0  0  0  0  0
    7.4534   -1.9792   -3.0792 H   0  0  0  0  0  0  0  0  0  0  0  0
    7.6610   -3.1459   -1.7299 H   0  0  0  0  0  0  0  0  0  0  0  0
    2.9059    5.6612    0.9360 H   0  0  0  0  0  0  0  0  0  0  0  0
    0.7128    6.2012    1.9934 H   0  0  0  0  0  0  0  0  0  0  0  0
   -0.8242    4.3744    2.6818 H   0  0  0  0  0  0  0  0  0  0  0  0
   -0.1971    2.0038    2.3171 H   0  0  0  0  0  0  0  0  0  0  0  0
    0.3691    1.1444   -0.7206 H   0  0  0  0  0  0  0  0  0  0  0  0
   -0.2229   -0.4698   -1.2035 H   0  0  0  0  0  0  0  0  0  0  0  0
   -2.0724    1.1133   -1.2713 H   0  0  0  0  0  0  0  0  0  0  0  0
   -1.7096    1.7331    0.3350 H   0  0  0  0  0  0  0  0  0  0  0  0
   -4.9431    1.0394    0.8054 H   0  0  0  0  0  0  0  0  0  0  0  0
   -4.4724    1.5141   -0.8592 H   0  0  0  0  0  0  0  0  0  0  0  0
  1  2  1  0
  2  3  1  0
  2  4  1  0
  4  5  1  0
  5  6  1  0
  6  7  1  0
  7  8  1  0
  8  9  1  0
  9 10  1  0
 10 11  1  0
 11 12  1  0
 12 13  1  0
 13 14  1  0
 14 15  2  0
 14 16  1  0
 16 17  2  0
 17 18  1  0
 18 19  1  0
 19 20  2  0
 19 21  1  0
 21 22  1  0
 22 23  1  0
 23 24  1  0
 24 25  1  0
 25 26  1  0
 26 27  1  0
 17 28  1  0
 28 29  1  0
 29 30  2  0
 30 31  1  0
 31 32  2  0
 32 33  1  0
 33 34  2  0
 13 35  1  0
 35 36  1  0
  9 37  1  0
  5 38  1  0
 38 39  2  0
 38 40  1  0
 40  2  1  0
 37  5  1  0
 36 10  1  0
 34 16  1  0
 27 22  1  0
 34 29  1  0
  1 41  1  0
  1 42  1  0
  1 43  1  0
  3 44  1  0
  3 45  1  0
  3 46  1  0
  4 47  1  0
  4 48  1  0
  6 49  1  0
  6 50  1  0
  7 51  1  0
  7 52  1  0
  8 53  1  0
  8 54  1  0
 10 55  1  0
 11 56  1  0
 11 57  1  0
 12 58  1  0
 12 59  1  0
 18 60  1  0
 21 61  1  0
 22 62  1  0
 23 63  1  0
 23 64  1  0
 24 65  1  0
 24 66  1  0
 25 67  1  0
 25 68  1  0
 26 69  1  0
 26 70  1  0
 27 71  1  0
 27 72  1  0
 30 73  1  0
 31 74  1  0
 32 75  1  0
 33 76  1  0
 35 77  1  0
 35 78  1  0
 36 79  1  0
 36 80  1  0
 37 81  1  0
 37 82  1  0
M  END
$$$$

     RDKit          3D

 80 85  0  0  0  0  0  0  0  0999 V2000
    0.7319    2.8252   -0.2330 C   0  0  0  0  0  0  0  0  0  0  0  0
    0.3095    1.4758   -0.6030 N   0  0  0  0  0  0  0  0  0  0  0  0
    1.2495    0.5497   -1.1557 C   0  0  0  0  0  0  0  0  0  0  0  0
    1.9557    0.8846   -2.3216 C   0  0  0  0  0  0  0  0  0  0  0  0
    2.9328    0.0235   -2.8262 C   0  0  0  0  0  0  0  0  0  0  0  0
    3.2158   -1.1783   -2.1693 C   0  0  0  0  0  0  0  0  0  0  0  0
    4.5485   -2.1914   -2.7178 S   0  0  0  0  0  6  0  0  0  0  0  0
    4.6907   -2.0975   -4.2107 O   0  0  0  0  0  0  0  0  0  0  0  0
    4.2809   -3.6249   -2.3533 O   0  0  0  0  0  0  0  0  0  0  0  0
    6.0234   -1.6266   -1.9368 C   0  0  0  0  0  0  0  0  0  0  0  0
    6.4778   -0.3251   -2.1821 C   0  0  0  0  0  0  0  0  0  0  0  0
    7.5855    0.1768   -1.4953 C   0  0  0  0  0  0  0  0  0  0  0  0
    8.2555   -0.6211   -0.5491 C   0  0  0  0  0  0  0  0  0  0  0  0
    9.3408   -0.1463    0.2077 O   0  0  0  0  0  0  0  0  0  0  0  0
    9.8239    1.1998    0.2014 C   0  0  0  0  0  0  0  0  0  0  0  0
   10.8201    1.3306    1.1523 F   0  0  0  0  0  0  0  0  0  0  0  0
   10.3543    1.5089   -1.0383 F   0  0  0  0  0  0  0  0  0  0  0  0
    8.7959    2.0768    0.5106 F   0  0  0  0  0  0  0  0  0  0  0  0
    7.8203   -1.9344   -0.3364 C   0  0  0  0  0  0  0  0  0  0  0  0
    6.7083   -2.4357   -1.0235 C   0  0  0  0  0  0  0  0  0  0  0  0
    2.5018   -1.5198   -1.0136 C   0  0  0  0  0  0  0  0  0  0  0  0
    1.4950   -0.6792   -0.5191 C   0  0  0  0  0  0  0  0  0  0  0  0
    0.8711   -1.0330    0.7234 N   0  0  0  0  0  0  0  0  0  0  0  0
   -0.3313   -0.7700    1.1512 C   0  0  0  0  0  0  0  0  0  0  0  0
   -0.6572   -1.2096    2.5158 C   0  0  0  0  0  0  0  0  0  0  0  0
   -1.3084   -2.4326    2.7384 C   0  0  0  0  0  0  0  0  0  0  0  0
   -1.5723   -2.8615    4.0425 C   0  0  0  0  0  0  0  0  0  0  0  0
   -1.1496   -2.0941    5.1444 C   0  0  0  0  0  0  0  0  0  0  0  0
   -1.3978   -2.5568    6.5272 C   0  0  0  0  0  0  0  0  0  0  0  0
   -2.0397   -3.6201    6.7359 O   0  0  0  0  0  0  0  0  0  0  0  0
   -0.9163   -1.8281    7.6108 O   0  0  0  0  0  0  0  0  0  0  0  0
   -0.4700   -0.8832    4.9151 C   0  0  0  0  0  0  0  0  0  0  0  0
   -0.2250   -0.4450    3.6101 C   0  0  0  0  0  0  0  0  0  0  0  0
   -1.3674   -0.0651    0.3361 C   0  0  0  0  0  0  0  0  0  0  0  0
   -2.7108   -0.4683    0.4129 C   0  0  0  0  0  0  0  0  0  0  0  0
   -3.7415    0.2170   -0.2654 C   0  0  0  0  0  0  0  0  0  0  0  0
   -3.4192    1.4166   -0.9592 C   0  0  0  0  0  0  0  0  0  0  0  0
   -2.0618    1.7797   -1.0770 C   0  0  0  0  0  0  0  0  0  0  0  0
   -1.0490    1.0588   -0.4384 C   0  0  0  0  0  0  0  0  0  0  0  0
   -4.4815    2.2668   -1.6704 C   0  0  0  0  0  0  0  0  0  0  0  0
   -4.2689    3.7740   -1.3769 C   0  0  0  0  0  0  0  0  0  0  0  0
   -4.3742    2.0405   -3.1961 C   0  0  0  0  0  0  0  0  0  0  0  0
   -5.9031    1.9138   -1.1772 C   0  0  0  0  0  0  0  0  0  0  0  0
   -6.1375    0.4093   -1.1301 C   0  0  0  0  0  0  0  0  0  0  0  0
   -5.1841   -0.3027   -0.1380 C   0  0  0  0  0  0  0  0  0  0  0  0
   -5.2512   -1.8178   -0.4592 C   0  0  0  0  0  0  0  0  0  0  0  0
   -5.6716   -0.0805    1.3111 C   0  0  0  0  0  0  0  0  0  0  0  0
   -0.1045    3.3978    0.2207 H   0  0  0  0  0  0  0  0  0  0  0  0
    1.0890    3.3755   -1.1254 H   0  0  0  0  0  0  0  0  0  0  0  0
    1.5481    2.7684    0.5178 H   0  0  0  0  0  0  0  0  0  0  0  0
    1.7589    1.8191   -2.8320 H   0  0  0  0  0  0  0  0  0  0  0  0
    3.4874    0.3123   -3.7106 H   0  0  0  0  0  0  0  0  0  0  0  0
    5.9616    0.3135   -2.8888 H   0  0  0  0  0  0  0  0  0  0  0  0
    7.9045    1.1892   -1.6973 H   0  0  0  0  0  0  0  0  0  0  0  0
    8.3236   -2.5569    0.3895 H   0  0  0  0  0  0  0  0  0  0  0  0
    6.3731   -3.4458   -0.8176 H   0  0  0  0  0  0  0  0  0  0  0  0
    2.7402   -2.4329   -0.4837 H   0  0  0  0  0  0  0  0  0  0  0  0
   -1.6053   -3.0574    1.9045 H   0  0  0  0  0  0  0  0  0  0  0  0
   -2.0895   -3.8011    4.1918 H   0  0  0  0  0  0  0  0  0  0  0  0
   -1.1113   -2.1201    8.5608 H   0  0  0  0  0  0  0  0  0  0  0  0
   -0.1170   -0.2811    5.7451 H   0  0  0  0  0  0  0  0  0  0  0  0
    0.3163    0.4828    3.4520 H   0  0  0  0  0  0  0  0  0  0  0  0
   -2.9616   -1.3330    1.0021 H   0  0  0  0  0  0  0  0  0  0  0  0
   -1.7695    2.6248   -1.6841 H   0  0  0  0  0  0  0  0  0  0  0  0
   -4.1961    3.9508   -0.2832 H   0  0  0  0  0  0  0  0  0  0  0  0
   -5.1200    4.3729   -1.7685 H   0  0  0  0  0  0  0  0  0  0  0  0
   -3.3484    4.1762   -1.8521 H   0  0  0  0  0  0  0  0  0  0  0  0
   -3.4013    2.4160   -3.5874 H   0  0  0  0  0  0  0  0  0  0  0  0
   -5.1820    2.5849   -3.7360 H   0  0  0  0  0  0  0  0  0  0  0  0
   -4.4317    0.9562   -3.4466 H   0  0  0  0  0  0  0  0  0  0  0  0
   -6.0799    2.3377   -0.1644 H   0  0  0  0  0  0  0  0  0  0  0  0
   -6.6626    2.3723   -1.8476 H   0  0  0  0  0  0  0  0  0  0  0  0
   -6.0157   -0.0085   -2.1512 H   0  0  0  0  0  0  0  0  0  0  0  0
   -7.1995    0.2214   -0.8505 H   0  0  0  0  0  0  0  0  0  0  0  0
   -4.7490   -2.0289   -1.4266 H   0  0  0  0  0  0  0  0  0  0  0  0
   -4.7756   -2.4393    0.3290 H   0  0  0  0  0  0  0  0  0  0  0  0
   -6.3080   -2.1582   -0.5391 H   0  0  0  0  0  0  0  0  0  0  0  0
   -5.0743   -0.6908    2.0246 H   0  0  0  0  0  0  0  0  0  0  0  0
   -6.7342   -0.3803    1.4250 H   0  0  0  0  0  0  0  0  0  0  0  0
   -5.5656    0.9825    1.6106 H   0  0  0  0  0  0  0  0  0  0  0  0
  1  2  1  0
  2  3  1  0
  3  4  2  0
  4  5  1  0
  5  6  2  0
  6  7  1  0
  7  8  2  0
  7  9  2  0
  7 10  1  0
 10 11  2  0
 11 12  1  0
 12 13  2  0
 13 14  1  0
 14 15  1  0
 15 16  1  0
 15 17  1  0
 15 18  1  0
 13 19  1  0
 19 20  2  0
  6 21  1  0
 21 22  2  0
 22 23  1  0
 23 24  2  0
 24 25  1  0
 25 26  2  0
 26 27  1  0
 27 28  2  0
 28 29  1  0
 29 30  2  0
 29 31  1  0
 28 32  1  0
 32 33  2  0
 24 34  1  0
 34 35  2  0
 35 36  1  0
 36 37  2  0
 37 38  1  0
 38 39  2  0
 37 40  1  0
 40 41  1  0
 40 42  1  0
 40 43  1  0
 43 44  1  0
 44 45  1  0
 45 46  1  0
 45 47  1  0
 39  2  1  0
 22  3  1  0
 33 25  1  0
 39 34  1  0
 20 10  1  0
 45 36  1  0
  1 48  1  0
  1 49  1  0
  1 50  1  0
  4 51  1  0
  5 52  1  0
 11 53  1  0
 12 54  1  0
 19 55  1  0
 20 56  1  0
 21 57  1  0
 26 58  1  0
 27 59  1  0
 31 60  1  0
 32 61  1  0
 33 62  1  0
 35 63  1  0
 38 64  1  0
 41 65  1  0
 41 66  1  0
 41 67  1  0
 42 68  1  0
 42 69  1  0
 42 70  1  0
 43 71  1  0
 43 72  1  0
 44 73  1  0
 44 74  1  0
 46 75  1  0
 46 76  1  0
 46 77  1  0
 47 78  1  0
 47 79  1  0
 47 80  1  0
M  END
$$$$

     RDKit          3D

 66 69  0  0  0  0  0  0  0  0999 V2000
   -7.3024    5.2429   -0.8770 C   0  0  0  0  0  0  0  0  0  0  0  0
   -5.8794    5.2189   -0.8622 O   0  0  0  0  0  0  0  0  0  0  0  0
   -5.1085    4.1208   -0.4509 C   0  0  0  0  0  0  0  0  0  0  0  0
   -5.6879    2.9114   -0.0154 C   0  0  0  0  0  0  0  0  0  0  0  0
   -4.8784    1.8478    0.3976 C   0  0  0  0  0  0  0  0  0  0  0  0
   -3.4865    1.9793    0.3834 C   0  0  0  0  0  0  0  0  0  0  0  0
   -2.7008    0.9574    0.8092 N   0  0  0  0  0  0  0  0  0  0  0  0
   -1.3416    1.0404    0.8288 C   0  0  0  0  0  0  0  0  0  0  0  0
   -0.5805   -0.0739    1.3217 N   0  0  0  0  0  0  0  0  0  0  0  0
   -1.0543   -1.4518    1.1952 C   0  0  0  0  0  0  0  0  0  0  0  0
   -0.9854   -1.8982   -0.2669 C   0  0  0  0  0  0  0  0  0  0  0  0
   -1.4895   -3.2642   -0.4168 N   0  0  0  0  0  0  0  0  0  0  0  0
   -0.6983   -4.4123   -0.0735 C   0  0  0  0  0  0  0  0  0  0  0  0
   -1.1784   -5.7814   -0.4271 C   0  0  0  0  0  0  0  0  0  0  0  0
    0.4188   -4.2735    0.4944 O   0  0  0  0  0  0  0  0  0  0  0  0
   -0.7046    2.2152    0.3606 C   0  0  0  0  0  0  0  0  0  0  0  0
    0.8060    2.3409    0.2947 C   0  0  0  0  0  0  0  0  0  0  0  0
    1.4370    1.2458   -0.5675 C   0  0  0  0  0  0  0  0  0  0  0  0
    0.9678    1.0769   -1.8870 C   0  0  0  0  0  0  0  0  0  0  0  0
    0.1557    1.9039   -2.3844 O   0  0  0  0  0  0  0  0  0  0  0  0
    1.3764    0.0231   -2.6400 N   0  0  0  0  0  0  0  0  0  0  0  0
    2.2462   -0.9145   -2.1752 C   0  0  0  0  0  0  0  0  0  0  0  0
    2.5784   -2.0937   -3.0579 C   0  0  0  0  0  0  0  0  0  0  0  0
    2.8243   -0.7570   -0.8928 C   0  0  0  0  0  0  0  0  0  0  0  0
    3.7720   -1.6791   -0.3975 C   0  0  0  0  0  0  0  0  0  0  0  0
    4.3946   -1.4825    0.8454 C   0  0  0  0  0  0  0  0  0  0  0  0
    5.3474   -2.3820    1.3565 O   0  0  0  0  0  0  0  0  0  0  0  0
    5.7637   -3.5802    0.7082 C   0  0  0  0  0  0  0  0  0  0  0  0
    4.0822   -0.3522    1.6029 C   0  0  0  0  0  0  0  0  0  0  0  0
    4.7553   -0.1678    2.8234 O   0  0  0  0  0  0  0  0  0  0  0  0
    4.6028    0.9644    3.6719 C   0  0  0  0  0  0  0  0  0  0  0  0
    3.1209    0.5608    1.1329 C   0  0  0  0  0  0  0  0  0  0  0  0
    2.4505    0.3598   -0.0960 C   0  0  0  0  0  0  0  0  0  0  0  0
   -1.5038    3.2864   -0.0733 C   0  0  0  0  0  0  0  0  0  0  0  0
   -2.8984    3.1797   -0.0597 C   0  0  0  0  0  0  0  0  0  0  0  0
   -3.7131    4.2433   -0.4766 C   0  0  0  0  0  0  0  0  0  0  0  0
   -7.6969    5.0737    0.1466 H   0  0  0  0  0  0  0  0  0  0  0  0
   -7.6448    6.2374   -1.2318 H   0  0  0  0  0  0  0  0  0  0  0  0
   -7.6893    4.4682   -1.5704 H   0  0  0  0  0  0  0  0  0  0  0  0
   -6.7620    2.7829    0.0066 H   0  0  0  0  0  0  0  0  0  0  0  0
   -5.3365    0.9241    0.7326 H   0  0  0  0  0  0  0  0  0  0  0  0
    0.3300    0.0924    1.8047 H   0  0  0  0  0  0  0  0  0  0  0  0
   -0.4128   -2.1146    1.8157 H   0  0  0  0  0  0  0  0  0  0  0  0
   -2.0963   -1.5314    1.5762 H   0  0  0  0  0  0  0  0  0  0  0  0
   -1.6040   -1.2149   -0.8895 H   0  0  0  0  0  0  0  0  0  0  0  0
    0.0622   -1.8425   -0.6355 H   0  0  0  0  0  0  0  0  0  0  0  0
   -2.3984   -3.4068   -0.9105 H   0  0  0  0  0  0  0  0  0  0  0  0
   -1.1480   -5.9109   -1.5289 H   0  0  0  0  0  0  0  0  0  0  0  0
   -2.2239   -5.9173   -0.0780 H   0  0  0  0  0  0  0  0  0  0  0  0
   -0.5396   -6.5519    0.0522 H   0  0  0  0  0  0  0  0  0  0  0  0
    1.0993    3.3218   -0.1390 H   0  0  0  0  0  0  0  0  0  0  0  0
    1.1490    2.3569    1.3416 H   0  0  0  0  0  0  0  0  0  0  0  0
    0.9812   -0.0749   -3.6034 H   0  0  0  0  0  0  0  0  0  0  0  0
    2.0368   -2.0487   -4.0241 H   0  0  0  0  0  0  0  0  0  0  0  0
    2.2808   -3.0351   -2.5530 H   0  0  0  0  0  0  0  0  0  0  0  0
    3.6642   -2.1121   -3.2794 H   0  0  0  0  0  0  0  0  0  0  0  0
    4.0443   -2.5466   -0.9808 H   0  0  0  0  0  0  0  0  0  0  0  0
    6.5289   -4.0849    1.3349 H   0  0  0  0  0  0  0  0  0  0  0  0
    6.2192   -3.3426   -0.2769 H   0  0  0  0  0  0  0  0  0  0  0  0
    4.8979   -4.2651    0.5791 H   0  0  0  0  0  0  0  0  0  0  0  0
    3.5515    1.0354    4.0300 H   0  0  0  0  0  0  0  0  0  0  0  0
    5.2727    0.8496    4.5503 H   0  0  0  0  0  0  0  0  0  0  0  0
    4.8871    1.8931    3.1283 H   0  0  0  0  0  0  0  0  0  0  0  0
    2.9471    1.4400    1.7221 H   0  0  0  0  0  0  0  0  0  0  0  0
   -1.0408    4.1984   -0.4317 H   0  0  0  0  0  0  0  0  0  0  0  0
   -3.2676    5.1718   -0.8170 H   0  0  0  0  0  0  0  0  0  0  0  0
  1  2  1  0
  2  3  1  0
  3  4  2  0
  4  5  1  0
  5  6  2  0
  6  7  1  0
  7  8  2  0
  8  9  1  0
  9 10  1  0
 10 11  1  0
 11 12  1  0
 12 13  1  0
 13 14  1  0
 13 15  2  0
  8 16  1  0
 16 17  1  0
 17 18  1  0
 18 19  1  0
 19 20  2  0
 19 21  1  0
 21 22  1  0
 22 23  1  0
 22 24  2  0
 24 25  1  0
 25 26  2  0
 26 27  1  0
 27 28  1  0
 26 29  1  0
 29 30  1  0
 30 31  1  0
 29 32  2  0
 32 33  1  0
 16 34  2  0
 34 35  1  0
 35 36  2  0
 36  3  1  0
 35  6  1  0
 33 18  2  0
 33 24  1  0
  1 37  1  0
  1 38  1  0
  1 39  1  0
  4 40  1  0
  5 41  1  0
  9 42  1  0
 10 43  1  0
 10 44  1  0
 11 45  1  0
 11 46  1  0
 12 47  1  0
 14 48  1  0
 14 49  1  0
 14 50  1  0
 17 51  1  0
 17 52  1  0
 21 53  1  0
 23 54  1  0
 23 55  1  0
 23 56  1  0
 25 57  1  0
 28 58  1  0
 28 59  1  0
 28 60  1  0
 31 61  1  0
 31 62  1  0
 31 63  1  0
 32 64  1  0
 34 65  1  0
 36 66  1  0
M  END
$$$$

     RDKit          3D

 73 77  0  0  0  0  0  0  0  0999 V2000
   -6.4722   -0.9436    2.0324 C   0  0  0  0  0  0  0  0  0  0  0  0
   -6.4153   -1.8308    0.7933 C   0  0  0  0  0  0  0  0  0  0  0  0
   -5.2921   -1.4477   -0.0614 N   0  0  0  0  0  0  0  0  0  0  0  0
   -3.9421   -1.8340    0.1284 C   0  0  0  0  0  0  0  0  0  0  0  0
   -3.5854   -2.7979    0.8584 O   0  0  0  0  0  0  0  0  0  0  0  0
   -3.0198   -0.9204   -0.6176 C   0  0  0  0  0  0  0  0  0  0  0  0
   -2.2589   -1.6649   -1.7355 C   0  0  0  0  0  0  0  0  0  0  0  0
   -1.0494   -2.4383   -1.1929 C   0  0  0  0  0  0  0  0  0  0  0  0
   -0.2006   -1.6078   -0.2066 C   0  0  0  0  0  0  0  0  0  0  0  0
   -0.6699   -0.2052   -0.1309 N   0  0  0  0  0  0  0  0  0  0  0  0
    0.2236    0.7099    0.6337 C   0  0  0  0  0  0  0  0  0  0  0  0
    1.4022    1.1801   -0.2525 C   0  0  0  0  0  0  0  0  0  0  0  0
    2.6302    1.5293    0.5868 C   0  0  0  0  0  0  0  0  0  0  0  0
    3.0675    0.3354    1.3282 N   0  0  0  0  0  0  0  0  0  0  0  0
    4.4616   -0.0390    1.4262 C   0  0  0  0  0  0  0  0  0  0  0  0
    4.8241   -0.8890    2.2861 O   0  0  0  0  0  0  0  0  0  0  0  0
    5.4966    0.5563    0.5586 C   0  0  0  0  0  0  0  0  0  0  0  0
    6.6068    1.2695    1.0337 C   0  0  0  0  0  0  0  0  0  0  0  0
    6.9181    1.5526    2.4048 N   0  0  0  0  0  0  0  0  0  0  0  0
    5.9506    2.0080    3.3600 C   0  0  0  0  0  0  0  0  0  0  0  0
    6.2716    2.0114    4.7503 N   0  0  0  0  0  0  0  0  0  0  0  0
    4.8254    2.4304    2.9810 O   0  0  0  0  0  0  0  0  0  0  0  0
    7.6351    1.6568   -0.2494 S   0  0  0  0  0  0  0  0  0  0  0  0
    6.6708    0.9456   -1.4245 C   0  0  0  0  0  0  0  0  0  0  0  0
    6.9144    0.8652   -2.7931 C   0  0  0  0  0  0  0  0  0  0  0  0
    5.9901    0.1767   -3.5922 C   0  0  0  0  0  0  0  0  0  0  0  0
    4.8589   -0.4261   -3.0109 C   0  0  0  0  0  0  0  0  0  0  0  0
    4.6372   -0.3392   -1.6264 C   0  0  0  0  0  0  0  0  0  0  0  0
    5.5494    0.3729   -0.8361 C   0  0  0  0  0  0  0  0  0  0  0  0
    2.0646   -0.4844    2.0284 C   0  0  0  0  0  0  0  0  0  0  0  0
    0.6693    0.1664    2.0271 C   0  0  0  0  0  0  0  0  0  0  0  0
   -2.0681   -0.1567    0.3484 C   0  0  0  0  0  0  0  0  0  0  0  0
   -3.9742    0.0102   -1.2265 N   0  0  0  0  0  0  0  0  0  0  0  0
   -5.1913   -0.2823   -0.8782 C   0  0  0  0  0  0  0  0  0  0  0  0
   -6.3889    0.4632   -1.4181 C   0  0  0  0  0  0  0  0  0  0  0  0
   -6.9152   -0.2409   -2.6721 C   0  0  0  0  0  0  0  0  0  0  0  0
   -6.0555    1.9308   -1.7187 C   0  0  0  0  0  0  0  0  0  0  0  0
   -6.5987    0.1205    1.7412 H   0  0  0  0  0  0  0  0  0  0  0  0
   -5.5343   -1.0473    2.6186 H   0  0  0  0  0  0  0  0  0  0  0  0
   -7.3321   -1.2439    2.6687 H   0  0  0  0  0  0  0  0  0  0  0  0
   -7.3669   -1.7501    0.2272 H   0  0  0  0  0  0  0  0  0  0  0  0
   -6.3016   -2.8903    1.1066 H   0  0  0  0  0  0  0  0  0  0  0  0
   -2.9383   -2.3597   -2.2768 H   0  0  0  0  0  0  0  0  0  0  0  0
   -1.8914   -0.9217   -2.4787 H   0  0  0  0  0  0  0  0  0  0  0  0
   -0.4186   -2.7606   -2.0510 H   0  0  0  0  0  0  0  0  0  0  0  0
   -1.4048   -3.3628   -0.6860 H   0  0  0  0  0  0  0  0  0  0  0  0
    0.8573   -1.6469   -0.5404 H   0  0  0  0  0  0  0  0  0  0  0  0
   -0.2527   -2.0948    0.7916 H   0  0  0  0  0  0  0  0  0  0  0  0
   -0.3415    1.6456    0.8542 H   0  0  0  0  0  0  0  0  0  0  0  0
    1.0949    2.0725   -0.8398 H   0  0  0  0  0  0  0  0  0  0  0  0
    1.6866    0.4013   -0.9877 H   0  0  0  0  0  0  0  0  0  0  0  0
    2.3721    2.3359    1.3080 H   0  0  0  0  0  0  0  0  0  0  0  0
    3.4215    1.9245   -0.0795 H   0  0  0  0  0  0  0  0  0  0  0  0
    7.9213    1.5251    2.6945 H   0  0  0  0  0  0  0  0  0  0  0  0
    5.5554    2.2925    5.4553 H   0  0  0  0  0  0  0  0  0  0  0  0
    7.2124    1.6995    5.0779 H   0  0  0  0  0  0  0  0  0  0  0  0
    7.7951    1.3183   -3.2280 H   0  0  0  0  0  0  0  0  0  0  0  0
    6.1535    0.0999   -4.6594 H   0  0  0  0  0  0  0  0  0  0  0  0
    4.1577   -0.9654   -3.6354 H   0  0  0  0  0  0  0  0  0  0  0  0
    3.7753   -0.8244   -1.1880 H   0  0  0  0  0  0  0  0  0  0  0  0
    2.3740   -0.6243    3.0868 H   0  0  0  0  0  0  0  0  0  0  0  0
    2.0205   -1.4874    1.5560 H   0  0  0  0  0  0  0  0  0  0  0  0
    0.7082    1.0229    2.7362 H   0  0  0  0  0  0  0  0  0  0  0  0
   -0.0747   -0.5356    2.4543 H   0  0  0  0  0  0  0  0  0  0  0  0
   -2.4053    0.9015    0.4219 H   0  0  0  0  0  0  0  0  0  0  0  0
   -2.1299   -0.5731    1.3792 H   0  0  0  0  0  0  0  0  0  0  0  0
   -7.1944    0.4580   -0.6535 H   0  0  0  0  0  0  0  0  0  0  0  0
   -7.2179   -1.2813   -2.4264 H   0  0  0  0  0  0  0  0  0  0  0  0
   -6.1326   -0.2705   -3.4614 H   0  0  0  0  0  0  0  0  0  0  0  0
   -7.8081    0.2924   -3.0669 H   0  0  0  0  0  0  0  0  0  0  0  0
   -5.6656    2.4281   -0.8044 H   0  0  0  0  0  0  0  0  0  0  0  0
   -6.9705    2.4712   -2.0416 H   0  0  0  0  0  0  0  0  0  0  0  0
   -5.2948    2.0081   -2.5263 H   0  0  0  0  0  0  0  0  0  0  0  0
  1  2  1  0
  2  3  1  0
  3  4  1  0
  4  5  2  0
  4  6  1  0
  6  7  1  0
  7  8  1  0
  8  9  1  0
  9 10  1  0
 10 11  1  0
 11 12  1  0
 12 13  1  0
 13 14  1  0
 14 15  1  0
 15 16  2  0
 15 17  1  0
 17 18  2  0
 18 19  1  0
 19 20  1  0
 20 21  1  0
 20 22  2  0
 18 23  1  0
 23 24  1  0
 24 25  2  0
 25 26  1  0
 26 27  2  0
 27 28  1  0
 28 29  2  0
 14 30  1  0
 30 31  1  0
 10 32  1  0
  6 33  1  0
 33 34  2  0
 34 35  1  0
 35 36  1  0
 35 37  1  0
 34  3  1  0
 32  6  1  0
 31 11  1  0
 29 17  1  0
 29 24  1  0
  1 38  1  0
  1 39  1  0
  1 40  1  0
  2 41  1  0
  2 42  1  0
  7 43  1  0
  7 44  1  0
  8 45  1  0
  8 46  1  0
  9 47  1  0
  9 48  1  0
 11 49  1  0
 12 50  1  0
 12 51  1  0
 13 52  1  0
 13 53  1  0
 19 54  1  0
 21 55  1  0
 21 56  1  0
 25 57  1  0
 26 58  1  0
 27 59  1  0
 28 60  1  0
 30 61  1  0
 30 62  1  0
 31 63  1  0
 31 64  1  0
 32 65  1  0
 32 66  1  0
 35 67  1  0
 36 68  1  0
 36 69  1  0
 36 70  1  0
 37 71  1  0
 37 72  1  0
 37 73  1  0
M  END
$$$$

     RDKit          3D

 51 54  0  0  0  0  0  0  0  0999 V2000
    4.5425    2.7832   -2.1216 C   0  0  0  0  0  0  0  0  0  0  0  0
    4.2057    1.6099   -1.3113 N   0  0  0  0  0  0  0  0  0  0  0  0
    4.7367    1.5177    0.0508 C   0  0  0  0  0  0  0  0  0  0  0  0
    3.2943    0.6071   -1.8033 C   0  0  0  0  0  0  0  0  0  0  0  0
    2.4827    0.8889   -2.7259 O   0  0  0  0  0  0  0  0  0  0  0  0
    3.2711   -0.7530   -1.2280 C   0  0  0  0  0  0  0  0  0  0  0  0
    4.4150   -1.5644   -1.3317 C   0  0  0  0  0  0  0  0  0  0  0  0
    5.5309   -1.1064   -1.9539 F   0  0  0  0  0  0  0  0  0  0  0  0
    4.4106   -2.8588   -0.8076 C   0  0  0  0  0  0  0  0  0  0  0  0
    3.2695   -3.3561   -0.1782 C   0  0  0  0  0  0  0  0  0  0  0  0
    3.2766   -4.6070    0.3450 F   0  0  0  0  0  0  0  0  0  0  0  0
    2.1254   -2.5620   -0.0720 C   0  0  0  0  0  0  0  0  0  0  0  0
    2.1060   -1.2590   -0.6054 C   0  0  0  0  0  0  0  0  0  0  0  0
    0.9539   -0.4138   -0.4215 N   0  0  0  0  0  0  0  0  0  0  0  0
   -0.3993   -0.8998   -0.4169 C   0  0  0  0  0  0  0  0  0  0  0  0
   -0.6657   -2.0230   -0.9254 O   0  0  0  0  0  0  0  0  0  0  0  0
   -1.4875   -0.0548    0.1262 C   0  0  0  0  0  0  0  0  0  0  0  0
   -1.3296    1.2969    0.1120 N   0  0  0  0  0  0  0  0  0  0  0  0
   -2.2825    2.1438    0.5842 C   0  0  0  0  0  0  0  0  0  0  0  0
   -2.0759    3.6301    0.5344 C   0  0  0  0  0  0  0  0  0  0  0  0
   -0.6524    4.1229    0.7706 C   0  0  0  0  0  0  0  0  0  0  0  0
   -1.6885    4.2343    1.8790 C   0  0  0  0  0  0  0  0  0  0  0  0
   -3.4749    1.6136    1.0783 C   0  0  0  0  0  0  0  0  0  0  0  0
   -3.6443    0.2674    1.1054 N   0  0  0  0  0  0  0  0  0  0  0  0
   -2.6903   -0.5892    0.6441 C   0  0  0  0  0  0  0  0  0  0  0  0
   -2.8815   -2.0065    0.7906 N   0  0  0  0  0  0  0  0  0  0  0  0
   -4.1692   -2.6448    0.7355 C   0  0  0  0  0  0  0  0  0  0  0  0
   -5.2437   -2.0976    0.0140 C   0  0  0  0  0  0  0  0  0  0  0  0
   -6.4345   -2.7504   -0.0324 N   0  0  0  0  0  0  0  0  0  0  0  0
   -6.6054   -3.9374    0.6055 C   0  0  0  0  0  0  0  0  0  0  0  0
   -5.5751   -4.4957    1.2949 N   0  0  0  0  0  0  0  0  0  0  0  0
   -4.3664   -3.8792    1.3669 C   0  0  0  0  0  0  0  0  0  0  0  0
    5.6449    2.8873   -2.1815 H   0  0  0  0  0  0  0  0  0  0  0  0
    4.1489    2.6934   -3.1538 H   0  0  0  0  0  0  0  0  0  0  0  0
    4.1165    3.6956   -1.6543 H   0  0  0  0  0  0  0  0  0  0  0  0
    5.4334    0.6567    0.1298 H   0  0  0  0  0  0  0  0  0  0  0  0
    5.2922    2.4408    0.3256 H   0  0  0  0  0  0  0  0  0  0  0  0
    3.9027    1.3850    0.7731 H   0  0  0  0  0  0  0  0  0  0  0  0
    5.2953   -3.4775   -0.8882 H   0  0  0  0  0  0  0  0  0  0  0  0
    1.2674   -2.9543    0.4584 H   0  0  0  0  0  0  0  0  0  0  0  0
    1.1144    0.6081   -0.2700 H   0  0  0  0  0  0  0  0  0  0  0  0
   -2.7348    4.2690   -0.0972 H   0  0  0  0  0  0  0  0  0  0  0  0
   -0.4177    5.0883    0.2729 H   0  0  0  0  0  0  0  0  0  0  0  0
    0.1218    3.3430    0.9491 H   0  0  0  0  0  0  0  0  0  0  0  0
   -2.0494    5.2723    2.0470 H   0  0  0  0  0  0  0  0  0  0  0  0
   -1.5167    3.5203    2.7168 H   0  0  0  0  0  0  0  0  0  0  0  0
   -4.2582    2.2622    1.4491 H   0  0  0  0  0  0  0  0  0  0  0  0
   -2.0578   -2.5882    1.0711 H   0  0  0  0  0  0  0  0  0  0  0  0
   -5.1357   -1.1676   -0.5283 H   0  0  0  0  0  0  0  0  0  0  0  0
   -7.5601   -4.4432    0.5571 H   0  0  0  0  0  0  0  0  0  0  0  0
   -3.5612   -4.3480    1.9211 H   0  0  0  0  0  0  0  0  0  0  0  0
  1  2  1  0
  2  3  1  0
  2  4  1  0
  4  5  2  0
  4  6  1  0
  6  7  2  0
  7  8  1  0
  7  9  1  0
  9 10  2  0
 10 11  1  0
 10 12  1  0
 12 13  2  0
 13 14  1  0
 14 15  1  0
 15 16  2  0
 15 17  1  0
 17 18  2  0
 18 19  1  0
 19 20  1  0
 20 21  1  0
 21 22  1  0
 19 23  2  0
 23 24  1  0
 24 25  2  0
 25 26  1  0
 26 27  1  0
 27 28  2  0
 28 29  1  0
 29 30  2  0
 30 31  1  0
 31 32  2  0
 13  6  1  0
 25 17  1  0
 32 27  1  0
 22 20  1  0
  1 33  1  0
  1 34  1  0
  1 35  1  0
  3 36  1  0
  3 37  1  0
  3 38  1  0
  9 39  1  0
 12 40  1  0
 14 41  1  0
 20 42  1  0
 21 43  1  0
 21 44  1  0
 22 45  1  0
 22 46  1  0
 23 47  1  0
 26 48  1  0
 28 49  1  0
 30 50  1  0
 32 51  1  0
M  END
$$$$

     RDKit          3D

 70 74  0  0  0  0  0  0  0  0999 V2000
    5.9960   -2.9821    1.5829 C   0  0  0  0  0  0  0  0  0  0  0  0
    5.8805   -3.7433    0.2617 C   0  0  0  0  0  0  0  0  0  0  0  0
    4.6165   -3.4296   -0.4071 N   0  0  0  0  0  0  0  0  0  0  0  0
    4.3344   -2.1607   -1.0214 C   0  0  0  0  0  0  0  0  0  0  0  0
    3.2040   -1.9690   -1.5458 O   0  0  0  0  0  0  0  0  0  0  0  0
    5.3257   -1.1246   -1.0627 N   0  0  0  0  0  0  0  0  0  0  0  0
    5.0212    0.2777   -1.0514 C   0  0  0  0  0  0  0  0  0  0  0  0
    6.0261    1.4375   -1.7530 S   0  0  0  0  0  0  0  0  0  0  0  0
    5.1028    2.7506   -1.2604 C   0  0  0  0  0  0  0  0  0  0  0  0
    5.3589    4.1024   -1.4785 C   0  0  0  0  0  0  0  0  0  0  0  0
    4.4781    5.0436   -0.9250 C   0  0  0  0  0  0  0  0  0  0  0  0
    3.3778    4.6196   -0.1563 C   0  0  0  0  0  0  0  0  0  0  0  0
    3.1436    3.2513    0.0574 C   0  0  0  0  0  0  0  0  0  0  0  0
    4.0090    2.3130   -0.5229 C   0  0  0  0  0  0  0  0  0  0  0  0
    3.9430    0.9099   -0.4022 C   0  0  0  0  0  0  0  0  0  0  0  0
    2.9224    0.2051    0.3999 C   0  0  0  0  0  0  0  0  0  0  0  0
    3.3091   -0.5364    1.3439 O   0  0  0  0  0  0  0  0  0  0  0  0
    1.5118    0.3409    0.1266 N   0  0  0  0  0  0  0  0  0  0  0  0
    0.5397   -0.1360    1.1256 C   0  0  0  0  0  0  0  0  0  0  0  0
   -0.8696    0.3851    0.8205 C   0  0  0  0  0  0  0  0  0  0  0  0
   -1.3129   -0.0201   -0.6095 C   0  0  0  0  0  0  0  0  0  0  0  0
   -2.5345    0.6825   -1.0897 N   0  0  0  0  0  0  0  0  0  0  0  0
   -2.6850    2.1317   -0.8486 C   0  0  0  0  0  0  0  0  0  0  0  0
   -3.5270    2.4247    0.4044 C   0  0  0  0  0  0  0  0  0  0  0  0
   -4.8702    1.6924    0.3506 C   0  0  0  0  0  0  0  0  0  0  0  0
   -4.6663    0.1870    0.1264 C   0  0  0  0  0  0  0  0  0  0  0  0
   -3.7995   -0.0805   -1.1181 C   0  0  0  0  0  0  0  0  0  0  0  0
   -4.0852   -0.4242    1.2804 O   0  0  0  0  0  0  0  0  0  0  0  0
   -4.9438   -1.3919    1.7857 C   0  0  0  0  0  0  0  0  0  0  0  0
   -4.6636   -2.1169    2.7771 O   0  0  0  0  0  0  0  0  0  0  0  0
   -6.1597   -1.4846    1.0631 N   0  0  0  0  0  0  0  0  0  0  0  0
   -7.0630   -2.6341    1.0342 C   0  0  0  0  0  0  0  0  0  0  0  0
   -6.5160   -3.7217    0.1140 C   0  0  0  0  0  0  0  0  0  0  0  0
   -5.9876   -0.5295    0.0234 C   0  0  0  0  0  0  0  0  0  0  0  0
   -6.8443   -0.3295   -0.8805 O   0  0  0  0  0  0  0  0  0  0  0  0
   -0.1799    0.1347   -1.6598 C   0  0  0  0  0  0  0  0  0  0  0  0
    1.0291    0.9190   -1.1400 C   0  0  0  0  0  0  0  0  0  0  0  0
    5.8390   -1.8941    1.4389 H   0  0  0  0  0  0  0  0  0  0  0  0
    7.0029   -3.1428    2.0228 H   0  0  0  0  0  0  0  0  0  0  0  0
    5.2335   -3.3719    2.2888 H   0  0  0  0  0  0  0  0  0  0  0  0
    6.7418   -3.5104   -0.3999 H   0  0  0  0  0  0  0  0  0  0  0  0
    5.9065   -4.8317    0.4936 H   0  0  0  0  0  0  0  0  0  0  0  0
    3.8810   -4.1729   -0.4412 H   0  0  0  0  0  0  0  0  0  0  0  0
    6.3283   -1.3959   -1.1761 H   0  0  0  0  0  0  0  0  0  0  0  0
    6.2183    4.4210   -2.0543 H   0  0  0  0  0  0  0  0  0  0  0  0
    4.6529    6.1009   -1.0795 H   0  0  0  0  0  0  0  0  0  0  0  0
    2.7127    5.3523    0.2807 H   0  0  0  0  0  0  0  0  0  0  0  0
    2.3099    2.9402    0.6722 H   0  0  0  0  0  0  0  0  0  0  0  0
    0.8358    0.2216    2.1361 H   0  0  0  0  0  0  0  0  0  0  0  0
    0.5351   -1.2469    1.1354 H   0  0  0  0  0  0  0  0  0  0  0  0
   -0.8325    1.4847    0.9433 H   0  0  0  0  0  0  0  0  0  0  0  0
   -1.5799   -0.0251    1.5689 H   0  0  0  0  0  0  0  0  0  0  0  0
   -1.5223   -1.1126   -0.5517 H   0  0  0  0  0  0  0  0  0  0  0  0
   -1.6974    2.6313   -0.7772 H   0  0  0  0  0  0  0  0  0  0  0  0
   -3.1936    2.5834   -1.7272 H   0  0  0  0  0  0  0  0  0  0  0  0
   -3.7119    3.5194    0.4667 H   0  0  0  0  0  0  0  0  0  0  0  0
   -2.9851    2.1276    1.3245 H   0  0  0  0  0  0  0  0  0  0  0  0
   -5.4185    1.8639    1.3031 H   0  0  0  0  0  0  0  0  0  0  0  0
   -5.4804    2.1185   -0.4758 H   0  0  0  0  0  0  0  0  0  0  0  0
   -4.3665    0.2273   -2.0266 H   0  0  0  0  0  0  0  0  0  0  0  0
   -3.6119   -1.1707   -1.2285 H   0  0  0  0  0  0  0  0  0  0  0  0
   -8.0611   -2.3114    0.6709 H   0  0  0  0  0  0  0  0  0  0  0  0
   -7.1825   -3.0432    2.0611 H   0  0  0  0  0  0  0  0  0  0  0  0
   -6.3855   -3.3183   -0.9147 H   0  0  0  0  0  0  0  0  0  0  0  0
   -7.2300   -4.5725    0.0777 H   0  0  0  0  0  0  0  0  0  0  0  0
   -5.5373   -4.0871    0.4924 H   0  0  0  0  0  0  0  0  0  0  0  0
    0.1757   -0.8766   -1.9654 H   0  0  0  0  0  0  0  0  0  0  0  0
   -0.5592    0.6303   -2.5814 H   0  0  0  0  0  0  0  0  0  0  0  0
    1.8182    0.8896   -1.9210 H   0  0  0  0  0  0  0  0  0  0  0  0
    0.7424    1.9779   -0.9768 H   0  0  0  0  0  0  0  0  0  0  0  0
  1  2  1  0
  2  3  1  0
  3  4  1  0
  4  5  2  0
  4  6  1  0
  6  7  1  0
  7  8  1  0
  8  9  1  0
  9 10  2  0
 10 11  1  0
 11 12  2  0
 12 13  1  0
 13 14  2  0
 14 15  1  0
 15 16  1  0
 16 17  2  0
 16 18  1  0
 18 19  1  0
 19 20  1  0
 20 21  1  0
 21 22  1  0
 22 23  1  0
 23 24  1  0
 24 25  1  0
 25 26  1  0
 26 27  1  0
 26 28  1  0
 28 29  1  0
 29 30  2  0
 29 31  1  0
 31 32  1  0
 32 33  1  0
 31 34  1  0
 34 35  2  0
 21 36  1  0
 36 37  1  0
 15  7  2  0
 37 18  1  0
 14  9  1  0
 27 22  1  0
 34 26  1  0
  1 38  1  0
  1 39  1  0
  1 40  1  0
  2 41  1  0
  2 42  1  0
  3 43  1  0
  6 44  1  0
 10 45  1  0
 11 46  1  0
 12 47  1  0
 13 48  1  0
 19 49  1  0
 19 50  1  0
 20 51  1  0
 20 52  1  0
 21 53  1  0
 23 54  1  0
 23 55  1  0
 24 56  1  0
 24 57  1  0
 25 58  1  0
 25 59  1  0
 27 60  1  0
 27 61  1  0
 32 62  1  0
 32 63  1  0
 33 64  1  0
 33 65  1  0
 33 66  1  0
 36 67  1  0
 36 68  1  0
 37 69  1  0
 37 70  1  0
M  END
$$$$

     RDKit          3D

 59 62  0  0  0  0  0  0  0  0999 V2000
    6.9562    2.6445    1.2542 C   0  0  0  0  0  0  0  0  0  0  0  0
    6.8289    1.1961    1.1563 N   0  0  0  0  0  0  0  0  0  0  0  0
    6.7219    0.5327   -0.1082 C   0  0  0  0  0  0  0  0  0  0  0  0
    6.8007    1.1913   -1.1803 O   0  0  0  0  0  0  0  0  0  0  0  0
    6.5422   -0.9542   -0.1640 C   0  0  0  0  0  0  0  0  0  0  0  0
    5.4515   -1.3640    0.6617 O   0  0  0  0  0  0  0  0  0  0  0  0
    4.0963   -1.0872    0.4159 C   0  0  0  0  0  0  0  0  0  0  0  0
    3.1591   -1.4838    1.3713 C   0  0  0  0  0  0  0  0  0  0  0  0
    1.7997   -1.2378    1.1782 C   0  0  0  0  0  0  0  0  0  0  0  0
    1.3463   -0.5969    0.0137 C   0  0  0  0  0  0  0  0  0  0  0  0
   -0.0512   -0.2913   -0.1384 N   0  0  0  0  0  0  0  0  0  0  0  0
   -1.1009   -1.2305    0.1436 C   0  0  0  0  0  0  0  0  0  0  0  0
   -0.8196   -2.4155    0.4688 O   0  0  0  0  0  0  0  0  0  0  0  0
   -2.5085   -0.8353   -0.0593 C   0  0  0  0  0  0  0  0  0  0  0  0
   -2.8083   -0.1043   -1.1663 N   0  0  0  0  0  0  0  0  0  0  0  0
   -4.0707    0.2993   -1.4635 C   0  0  0  0  0  0  0  0  0  0  0  0
   -4.2687    1.1024   -2.7322 C   0  0  0  0  0  0  0  0  0  0  0  0
   -5.5635    0.8812   -3.5019 C   0  0  0  0  0  0  0  0  0  0  0  0
   -5.3513    2.1725   -2.7211 C   0  0  0  0  0  0  0  0  0  0  0  0
   -5.1065   -0.0589   -0.5846 C   0  0  0  0  0  0  0  0  0  0  0  0
   -4.8170   -0.7697    0.5338 N   0  0  0  0  0  0  0  0  0  0  0  0
   -3.5503   -1.1630    0.8396 C   0  0  0  0  0  0  0  0  0  0  0  0
   -3.3079   -1.8773    2.0675 N   0  0  0  0  0  0  0  0  0  0  0  0
   -4.2064   -1.8499    3.1908 C   0  0  0  0  0  0  0  0  0  0  0  0
   -4.9431   -0.7042    3.5271 C   0  0  0  0  0  0  0  0  0  0  0  0
   -5.7589   -0.7154    4.6128 N   0  0  0  0  0  0  0  0  0  0  0  0
   -5.8695   -1.8217    5.3930 C   0  0  0  0  0  0  0  0  0  0  0  0
   -5.1479   -2.9344    5.1022 N   0  0  0  0  0  0  0  0  0  0  0  0
   -4.3180   -2.9665    4.0276 C   0  0  0  0  0  0  0  0  0  0  0  0
    2.2867   -0.1798   -0.9584 C   0  0  0  0  0  0  0  0  0  0  0  0
    1.8605    0.4746   -2.2187 C   0  0  0  0  0  0  0  0  0  0  0  0
    0.8092    0.0888   -2.7996 O   0  0  0  0  0  0  0  0  0  0  0  0
    2.6416    1.5338   -2.7908 N   0  0  0  0  0  0  0  0  0  0  0  0
    2.2907    2.1388   -4.0700 C   0  0  0  0  0  0  0  0  0  0  0  0
    3.6539   -0.4355   -0.7493 C   0  0  0  0  0  0  0  0  0  0  0  0
    7.0213    2.9457    2.3205 H   0  0  0  0  0  0  0  0  0  0  0  0
    6.0698    3.1310    0.7959 H   0  0  0  0  0  0  0  0  0  0  0  0
    7.8762    2.9786    0.7302 H   0  0  0  0  0  0  0  0  0  0  0  0
    6.7998    0.6322    2.0352 H   0  0  0  0  0  0  0  0  0  0  0  0
    7.4697   -1.4301    0.2155 H   0  0  0  0  0  0  0  0  0  0  0  0
    6.3882   -1.3051   -1.2070 H   0  0  0  0  0  0  0  0  0  0  0  0
    3.4884   -1.9785    2.2761 H   0  0  0  0  0  0  0  0  0  0  0  0
    1.1018   -1.5241    1.9539 H   0  0  0  0  0  0  0  0  0  0  0  0
   -0.3130    0.6452   -0.5209 H   0  0  0  0  0  0  0  0  0  0  0  0
   -3.3847    1.3380   -3.3633 H   0  0  0  0  0  0  0  0  0  0  0  0
   -6.3067    0.1896   -3.0549 H   0  0  0  0  0  0  0  0  0  0  0  0
   -5.4689    1.0043   -4.6016 H   0  0  0  0  0  0  0  0  0  0  0  0
   -5.9656    2.2616   -1.8018 H   0  0  0  0  0  0  0  0  0  0  0  0
   -5.1332    3.0511   -3.3643 H   0  0  0  0  0  0  0  0  0  0  0  0
   -6.1332    0.2229   -0.7658 H   0  0  0  0  0  0  0  0  0  0  0  0
   -2.4893   -2.5201    2.1398 H   0  0  0  0  0  0  0  0  0  0  0  0
   -4.8543    0.2037    2.9463 H   0  0  0  0  0  0  0  0  0  0  0  0
   -6.5259   -1.8136    6.2516 H   0  0  0  0  0  0  0  0  0  0  0  0
   -3.7527   -3.8653    3.8195 H   0  0  0  0  0  0  0  0  0  0  0  0
    3.4628    1.9143   -2.2687 H   0  0  0  0  0  0  0  0  0  0  0  0
    2.3222    1.3705   -4.8702 H   0  0  0  0  0  0  0  0  0  0  0  0
    3.0132    2.9441   -4.3167 H   0  0  0  0  0  0  0  0  0  0  0  0
    1.2722    2.5759   -4.0147 H   0  0  0  0  0  0  0  0  0  0  0  0
    4.3648   -0.1510   -1.5115 H   0  0  0  0  0  0  0  0  0  0  0  0
  1  2  1  0
  2  3  1  0
  3  4  2  0
  3  5  1  0
  5  6  1  0
  6  7  1  0
  7  8  2  0
  8  9  1  0
  9 10  2  0
 10 11  1  0
 11 12  1  0
 12 13  2  0
 12 14  1  0
 14 15  2  0
 15 16  1  0
 16 17  1  0
 17 18  1  0
 18 19  1  0
 16 20  2  0
 20 21  1  0
 21 22  2  0
 22 23  1  0
 23 24  1  0
 24 25  2  0
 25 26  1  0
 26 27  2  0
 27 28  1  0
 28 29  2  0
 10 30  1  0
 30 31  1  0
 31 32  2  0
 31 33  1  0
 33 34  1  0
 30 35  2  0
 35  7  1  0
 22 14  1  0
 29 24  1  0
 19 17  1  0
  1 36  1  0
  1 37  1  0
  1 38  1  0
  2 39  1  0
  5 40  1  0
  5 41  1  0
  8 42  1  0
  9 43  1  0
 11 44  1  0
 17 45  1  0
 18 46  1  0
 18 47  1  0
 19 48  1  0
 19 49  1  0
 20 50  1  0
 23 51  1  0
 25 52  1  0
 27 53  1  0
 29 54  1  0
 33 55  1  0
 34 56  1  0
 34 57  1  0
 34 58  1  0
 35 59  1  0
M  END
$$$$

     RDKit          3D

 48 51  0  0  0  0  0  0  0  0999 V2000
    5.4869   -0.0050    1.4781 C   0  0  0  0  0  0  0  0  0  0  0  0
    5.0139   -0.1999    0.1130 N   0  0  0  0  0  0  0  0  0  0  0  0
    3.7487    0.3126   -0.3239 C   0  0  0  0  0  0  0  0  0  0  0  0
    2.9867    0.8863    0.5022 O   0  0  0  0  0  0  0  0  0  0  0  0
    3.3218    0.1708   -1.7372 C   0  0  0  0  0  0  0  0  0  0  0  0
    4.2424    0.4168   -2.7766 C   0  0  0  0  0  0  0  0  0  0  0  0
    5.5192    0.7898   -2.5045 F   0  0  0  0  0  0  0  0  0  0  0  0
    3.8411    0.3276   -4.1117 C   0  0  0  0  0  0  0  0  0  0  0  0
    2.5229    0.0020   -4.4290 C   0  0  0  0  0  0  0  0  0  0  0  0
    2.1413   -0.0880   -5.7271 F   0  0  0  0  0  0  0  0  0  0  0  0
    1.5973   -0.2378   -3.4133 C   0  0  0  0  0  0  0  0  0  0  0  0
    1.9809   -0.1507   -2.0641 C   0  0  0  0  0  0  0  0  0  0  0  0
    1.0300   -0.4669   -1.0326 N   0  0  0  0  0  0  0  0  0  0  0  0
   -0.2825    0.1149   -0.9757 C   0  0  0  0  0  0  0  0  0  0  0  0
   -0.6308    0.9744   -1.8302 O   0  0  0  0  0  0  0  0  0  0  0  0
   -1.2247   -0.3012    0.0845 C   0  0  0  0  0  0  0  0  0  0  0  0
   -1.1213   -1.5634    0.5820 N   0  0  0  0  0  0  0  0  0  0  0  0
   -1.9575   -2.0327    1.5438 C   0  0  0  0  0  0  0  0  0  0  0  0
   -1.8275   -3.4449    2.0350 C   0  0  0  0  0  0  0  0  0  0  0  0
   -0.4017   -3.9024    2.3109 C   0  0  0  0  0  0  0  0  0  0  0  0
   -1.3294   -3.5743    3.4672 C   0  0  0  0  0  0  0  0  0  0  0  0
   -2.9765   -1.2056    2.0170 C   0  0  0  0  0  0  0  0  0  0  0  0
   -3.0847    0.0597    1.5378 N   0  0  0  0  0  0  0  0  0  0  0  0
   -2.2421    0.5436    0.5842 C   0  0  0  0  0  0  0  0  0  0  0  0
   -2.3344    1.9233    0.1912 N   0  0  0  0  0  0  0  0  0  0  0  0
   -3.5600    2.6750    0.2029 C   0  0  0  0  0  0  0  0  0  0  0  0
   -4.8103    2.0659    0.0175 C   0  0  0  0  0  0  0  0  0  0  0  0
   -5.9396    2.8211    0.0054 N   0  0  0  0  0  0  0  0  0  0  0  0
   -5.8816    4.1678    0.1656 C   0  0  0  0  0  0  0  0  0  0  0  0
   -4.6818    4.7819    0.3275 N   0  0  0  0  0  0  0  0  0  0  0  0
   -3.5272    4.0666    0.3428 C   0  0  0  0  0  0  0  0  0  0  0  0
    5.5875    1.0808    1.6904 H   0  0  0  0  0  0  0  0  0  0  0  0
    4.7695   -0.4589    2.1946 H   0  0  0  0  0  0  0  0  0  0  0  0
    6.4781   -0.4888    1.6072 H   0  0  0  0  0  0  0  0  0  0  0  0
    5.5974   -0.7695   -0.5402 H   0  0  0  0  0  0  0  0  0  0  0  0
    4.5543    0.5217   -4.9031 H   0  0  0  0  0  0  0  0  0  0  0  0
    0.5834   -0.5140   -3.6775 H   0  0  0  0  0  0  0  0  0  0  0  0
    1.3480   -1.0590   -0.2324 H   0  0  0  0  0  0  0  0  0  0  0  0
   -2.5317   -4.2297    1.6879 H   0  0  0  0  0  0  0  0  0  0  0  0
    0.4028   -3.1498    2.1633 H   0  0  0  0  0  0  0  0  0  0  0  0
   -0.2298   -4.9906    2.1721 H   0  0  0  0  0  0  0  0  0  0  0  0
   -1.0853   -2.6239    3.9858 H   0  0  0  0  0  0  0  0  0  0  0  0
   -1.7114   -4.4657    4.0086 H   0  0  0  0  0  0  0  0  0  0  0  0
   -3.6701   -1.5567    2.7698 H   0  0  0  0  0  0  0  0  0  0  0  0
   -1.4462    2.4422    0.0076 H   0  0  0  0  0  0  0  0  0  0  0  0
   -4.8907    0.9992   -0.1396 H   0  0  0  0  0  0  0  0  0  0  0  0
   -6.7915    4.7529    0.1540 H   0  0  0  0  0  0  0  0  0  0  0  0
   -2.5837    4.5825    0.4691 H   0  0  0  0  0  0  0  0  0  0  0  0
  1  2  1  0
  2  3  1  0
  3  4  2  0
  3  5  1  0
  5  6  2  0
  6  7  1  0
  6  8  1  0
  8  9  2  0
  9 10  1  0
  9 11  1  0
 11 12  2  0
 12 13  1  0
 13 14  1  0
 14 15  2  0
 14 16  1  0
 16 17  2  0
 17 18  1  0
 18 19  1  0
 19 20  1  0
 20 21  1  0
 18 22  2  0
 22 23  1  0
 23 24  2  0
 24 25  1  0
 25 26  1  0
 26 27  2  0
 27 28  1  0
 28 29  2  0
 29 30  1  0
 30 31  2  0
 12  5  1  0
 24 16  1  0
 31 26  1  0
 21 19  1  0
  1 32  1  0
  1 33  1  0
  1 34  1  0
  2 35  1  0
  8 36  1  0
 11 37  1  0
 13 38  1  0
 19 39  1  0
 20 40  1  0
 20 41  1  0
 21 42  1  0
 21 43  1  0
 22 44  1  0
 25 45  1  0
 27 46  1  0
 29 47  1  0
 31 48  1  0
M  END
$$$$

     RDKit          3D

 69 73  0  0  0  0  0  0  0  0999 V2000
    5.9506    3.1711   -1.8505 C   0  0  0  0  0  0  0  0  0  0  0  0
    5.3258    1.8479   -1.8042 N   0  0  0  0  0  0  0  0  0  0  0  0
    4.1025    1.5570   -2.4984 C   0  0  0  0  0  0  0  0  0  0  0  0
    3.5298    2.4609   -3.1653 O   0  0  0  0  0  0  0  0  0  0  0  0
    3.5440    0.2323   -2.4954 N   0  0  0  0  0  0  0  0  0  0  0  0
    4.0873   -0.8322   -1.7138 C   0  0  0  0  0  0  0  0  0  0  0  0
    4.6978   -2.2633   -2.3648 S   0  0  0  0  0  0  0  0  0  0  0  0
    5.0357   -2.9556   -0.8728 C   0  0  0  0  0  0  0  0  0  0  0  0
    5.5778   -4.2129   -0.6225 C   0  0  0  0  0  0  0  0  0  0  0  0
    5.7483   -4.6089    0.7099 C   0  0  0  0  0  0  0  0  0  0  0  0
    5.3774   -3.7467    1.7591 C   0  0  0  0  0  0  0  0  0  0  0  0
    4.8268   -2.4813    1.4851 C   0  0  0  0  0  0  0  0  0  0  0  0
    4.6508   -2.0967    0.1529 C   0  0  0  0  0  0  0  0  0  0  0  0
    4.1083   -0.8890   -0.3164 C   0  0  0  0  0  0  0  0  0  0  0  0
    3.5050    0.1327    0.5549 C   0  0  0  0  0  0  0  0  0  0  0  0
    4.2024    1.1365    0.8695 O   0  0  0  0  0  0  0  0  0  0  0  0
    2.1576   -0.0011    1.0614 N   0  0  0  0  0  0  0  0  0  0  0  0
    1.5981    1.0598    1.9203 C   0  0  0  0  0  0  0  0  0  0  0  0
    0.0951    1.2368    1.6672 C   0  0  0  0  0  0  0  0  0  0  0  0
   -0.6322   -0.1184    1.7915 C   0  0  0  0  0  0  0  0  0  0  0  0
   -2.1130   -0.0398    1.6581 N   0  0  0  0  0  0  0  0  0  0  0  0
   -2.7626    0.4984    2.8701 C   0  0  0  0  0  0  0  0  0  0  0  0
   -4.2636    0.1583    2.8717 C   0  0  0  0  0  0  0  0  0  0  0  0
   -4.7789   -0.2681    1.4868 C   0  0  0  0  0  0  0  0  0  0  0  0
   -4.1747    0.5826    0.3396 C   0  0  0  0  0  0  0  0  0  0  0  0
   -2.6113    0.6728    0.4548 C   0  0  0  0  0  0  0  0  0  0  0  0
   -4.6510    0.0298   -1.0390 C   0  0  0  0  0  0  0  0  0  0  0  0
   -5.6419    1.0781   -1.6298 C   0  0  0  0  0  0  0  0  0  0  0  0
   -7.0785    0.5313   -1.6664 C   0  0  0  0  0  0  0  0  0  0  0  0
   -5.2089    1.5368   -3.0316 C   0  0  0  0  0  0  0  0  0  0  0  0
   -5.5952    2.1847   -0.7478 O   0  0  0  0  0  0  0  0  0  0  0  0
   -4.7946    1.9426    0.3403 C   0  0  0  0  0  0  0  0  0  0  0  0
   -4.6185    2.8046    1.2421 O   0  0  0  0  0  0  0  0  0  0  0  0
   -0.0380   -1.1172    0.7833 C   0  0  0  0  0  0  0  0  0  0  0  0
    1.4632   -1.3032    1.0301 C   0  0  0  0  0  0  0  0  0  0  0  0
    6.1487    3.4503   -2.9054 H   0  0  0  0  0  0  0  0  0  0  0  0
    6.9235    3.1506   -1.3057 H   0  0  0  0  0  0  0  0  0  0  0  0
    5.2851    3.9260   -1.3749 H   0  0  0  0  0  0  0  0  0  0  0  0
    5.8529    1.0757   -1.3320 H   0  0  0  0  0  0  0  0  0  0  0  0
    2.8122   -0.0015   -3.2097 H   0  0  0  0  0  0  0  0  0  0  0  0
    5.8472   -4.8703   -1.4349 H   0  0  0  0  0  0  0  0  0  0  0  0
    6.1710   -5.5802    0.9283 H   0  0  0  0  0  0  0  0  0  0  0  0
    5.5059   -4.0697    2.7849 H   0  0  0  0  0  0  0  0  0  0  0  0
    4.5492   -1.8243    2.2967 H   0  0  0  0  0  0  0  0  0  0  0  0
    2.0954    2.0324    1.7226 H   0  0  0  0  0  0  0  0  0  0  0  0
    1.7746    0.8012    2.9887 H   0  0  0  0  0  0  0  0  0  0  0  0
   -0.0321    1.6564    0.6459 H   0  0  0  0  0  0  0  0  0  0  0  0
   -0.3102    1.9612    2.4029 H   0  0  0  0  0  0  0  0  0  0  0  0
   -0.3940   -0.5296    2.7988 H   0  0  0  0  0  0  0  0  0  0  0  0
   -2.6318    1.6048    2.9197 H   0  0  0  0  0  0  0  0  0  0  0  0
   -2.3073    0.0728    3.7967 H   0  0  0  0  0  0  0  0  0  0  0  0
   -4.8372    1.0391    3.2333 H   0  0  0  0  0  0  0  0  0  0  0  0
   -4.4506   -0.6691    3.5924 H   0  0  0  0  0  0  0  0  0  0  0  0
   -5.8915   -0.2185    1.4755 H   0  0  0  0  0  0  0  0  0  0  0  0
   -4.5010   -1.3358    1.3284 H   0  0  0  0  0  0  0  0  0  0  0  0
   -2.2980    1.7398    0.4859 H   0  0  0  0  0  0  0  0  0  0  0  0
   -2.1314    0.2455   -0.4485 H   0  0  0  0  0  0  0  0  0  0  0  0
   -3.8054   -0.1405   -1.7357 H   0  0  0  0  0  0  0  0  0  0  0  0
   -5.1358   -0.9656   -0.9368 H   0  0  0  0  0  0  0  0  0  0  0  0
   -7.3955    0.2025   -0.6535 H   0  0  0  0  0  0  0  0  0  0  0  0
   -7.7801    1.3212   -2.0035 H   0  0  0  0  0  0  0  0  0  0  0  0
   -7.1460   -0.3296   -2.3638 H   0  0  0  0  0  0  0  0  0  0  0  0
   -5.2410    0.6818   -3.7411 H   0  0  0  0  0  0  0  0  0  0  0  0
   -4.1729    1.9471   -3.0076 H   0  0  0  0  0  0  0  0  0  0  0  0
   -5.8802    2.3410   -3.3976 H   0  0  0  0  0  0  0  0  0  0  0  0
   -0.1722   -0.7549   -0.2553 H   0  0  0  0  0  0  0  0  0  0  0  0
   -0.5487   -2.0981    0.8814 H   0  0  0  0  0  0  0  0  0  0  0  0
    1.6200   -1.8202    1.9993 H   0  0  0  0  0  0  0  0  0  0  0  0
    1.8559   -1.9621    0.2271 H   0  0  0  0  0  0  0  0  0  0  0  0
  1  2  1  0
  2  3  1  0
  3  4  2  0
  3  5  1  0
  5  6  1  0
  6  7  1  0
  7  8  1  0
  8  9  2  0
  9 10  1  0
 10 11  2  0
 11 12  1  0
 12 13  2  0
 13 14  1  0
 14 15  1  0
 15 16  2  0
 15 17  1  0
 17 18  1  0
 18 19  1  0
 19 20  1  0
 20 21  1  0
 21 22  1  0
 22 23  1  0
 23 24  1  0
 24 25  1  0
 25 26  1  0
 25 27  1  0
 27 28  1  0
 28 29  1  0
 28 30  1  0
 28 31  1  0
 31 32  1  0
 32 33  2  0
 20 34  1  0
 34 35  1  0
 14  6  2  0
 35 17  1  0
 13  8  1  0
 26 21  1  0
 32 25  1  0
  1 36  1  0
  1 37  1  0
  1 38  1  0
  2 39  1  0
  5 40  1  0
  9 41  1  0
 10 42  1  0
 11 43  1  0
 12 44  1  0
 18 45  1  0
 18 46  1  0
 19 47  1  0
 19 48  1  0
 20 49  1  0
 22 50  1  0
 22 51  1  0
 23 52  1  0
 23 53  1  0
 24 54  1  0
 24 55  1  0
 26 56  1  0
 26 57  1  0
 27 58  1  0
 27 59  1  0
 29 60  1  0
 29 61  1  0
 29 62  1  0
 30 63  1  0
 30 64  1  0
 30 65  1  0
 34 66  1  0
 34 67  1  0
 35 68  1  0
 35 69  1  0
M  END
$$$$

     RDKit          3D

 49 53  0  0  0  0  0  0  0  0999 V2000
    4.1612    1.4156   -4.4674 C   0  0  0  0  0  0  0  0  0  0  0  0
    4.5439    1.3659   -3.0600 N   0  0  0  0  0  0  0  0  0  0  0  0
    5.7574    1.6757   -2.6303 N   0  0  0  0  0  0  0  0  0  0  0  0
    5.7600    1.5721   -1.2877 C   0  0  0  0  0  0  0  0  0  0  0  0
    4.5091    1.1751   -0.8539 C   0  0  0  0  0  0  0  0  0  0  0  0
    4.1383    0.9082    0.5456 C   0  0  0  0  0  0  0  0  0  0  0  0
    4.5786    1.6621    1.4530 O   0  0  0  0  0  0  0  0  0  0  0  0
    3.3415   -0.2229    0.9041 N   0  0  0  0  0  0  0  0  0  0  0  0
    2.7764   -0.7697    2.1512 C   0  0  0  0  0  0  0  0  0  0  0  0
    2.2945   -2.0515    1.5587 C   0  0  0  0  0  0  0  0  0  0  0  0
    2.9975   -3.1500    2.0244 F   0  0  0  0  0  0  0  0  0  0  0  0
    2.8759   -1.4894    0.3047 C   0  0  0  0  0  0  0  0  0  0  0  0
    3.7469    1.0666   -2.0093 C   0  0  0  0  0  0  0  0  0  0  0  0
    2.2989    0.7879   -2.1065 C   0  0  0  0  0  0  0  0  0  0  0  0
    1.8728    0.0931   -3.0674 O   0  0  0  0  0  0  0  0  0  0  0  0
    1.3904    1.2851   -1.1085 N   0  0  0  0  0  0  0  0  0  0  0  0
    0.0067    0.9084   -1.0301 C   0  0  0  0  0  0  0  0  0  0  0  0
   -0.8126    0.8338   -2.1845 C   0  0  0  0  0  0  0  0  0  0  0  0
   -2.1660    0.4723   -2.0768 C   0  0  0  0  0  0  0  0  0  0  0  0
   -2.6607    0.2092   -0.8037 C   0  0  0  0  0  0  0  0  0  0  0  0
   -3.9171   -0.1485   -0.4858 N   0  0  0  0  0  0  0  0  0  0  0  0
   -3.8302   -0.2613    0.8680 C   0  0  0  0  0  0  0  0  0  0  0  0
   -4.9690   -0.6450    1.7297 C   0  0  0  0  0  0  0  0  0  0  0  0
   -4.8111   -0.7300    3.1251 C   0  0  0  0  0  0  0  0  0  0  0  0
   -5.8897   -1.0937    3.9376 C   0  0  0  0  0  0  0  0  0  0  0  0
   -7.1331   -1.3758    3.3672 C   0  0  0  0  0  0  0  0  0  0  0  0
   -7.3008   -1.2945    1.9830 C   0  0  0  0  0  0  0  0  0  0  0  0
   -6.2257   -0.9309    1.1658 C   0  0  0  0  0  0  0  0  0  0  0  0
   -2.5904    0.0143    1.3449 N   0  0  0  0  0  0  0  0  0  0  0  0
   -1.8795    0.3056    0.2750 N   0  0  0  0  0  0  0  0  0  0  0  0
   -0.5699    0.6511    0.2278 C   0  0  0  0  0  0  0  0  0  0  0  0
    3.8579    0.4047   -4.8111 H   0  0  0  0  0  0  0  0  0  0  0  0
    5.0180    1.7565   -5.0867 H   0  0  0  0  0  0  0  0  0  0  0  0
    3.3183    2.1255   -4.6038 H   0  0  0  0  0  0  0  0  0  0  0  0
    6.6262    1.7558   -0.6658 H   0  0  0  0  0  0  0  0  0  0  0  0
    1.9454   -0.1312    2.5235 H   0  0  0  0  0  0  0  0  0  0  0  0
    3.5715   -0.9167    2.9160 H   0  0  0  0  0  0  0  0  0  0  0  0
    1.1888   -2.1672    1.5456 H   0  0  0  0  0  0  0  0  0  0  0  0
    3.7331   -2.0835   -0.0834 H   0  0  0  0  0  0  0  0  0  0  0  0
    2.0967   -1.3190   -0.4665 H   0  0  0  0  0  0  0  0  0  0  0  0
    1.7771    1.8504   -0.3205 H   0  0  0  0  0  0  0  0  0  0  0  0
   -0.4159    1.0790   -3.1602 H   0  0  0  0  0  0  0  0  0  0  0  0
   -2.8011    0.4106   -2.9509 H   0  0  0  0  0  0  0  0  0  0  0  0
   -3.8563   -0.5155    3.5885 H   0  0  0  0  0  0  0  0  0  0  0  0
   -5.7610   -1.1571    5.0104 H   0  0  0  0  0  0  0  0  0  0  0  0
   -7.9665   -1.6574    3.9978 H   0  0  0  0  0  0  0  0  0  0  0  0
   -8.2647   -1.5135    1.5421 H   0  0  0  0  0  0  0  0  0  0  0  0
   -6.3781   -0.8743    0.0953 H   0  0  0  0  0  0  0  0  0  0  0  0
    0.0163    0.7141    1.1358 H   0  0  0  0  0  0  0  0  0  0  0  0
  1  2  1  0
  2  3  1  0
  3  4  2  0
  4  5  1  0
  5  6  1  0
  6  7  2  0
  6  8  1  0
  8  9  1  0
  9 10  1  0
 10 11  1  0
 10 12  1  0
  5 13  2  0
 13 14  1  0
 14 15  2  0
 14 16  1  0
 16 17  1  0
 17 18  1  0
 18 19  2  0
 19 20  1  0
 20 21  2  0
 21 22  1  0
 22 23  1  0
 23 24  2  0
 24 25  1  0
 25 26  2  0
 26 27  1  0
 27 28  2  0
 22 29  2  0
 29 30  1  0
 30 31  1  0
 13  2  1  0
 31 17  2  0
 12  8  1  0
 30 20  1  0
 28 23  1  0
  1 32  1  0
  1 33  1  0
  1 34  1  0
  4 35  1  0
  9 36  1  0
  9 37  1  0
 10 38  1  0
 12 39  1  0
 12 40  1  0
 16 41  1  0
 18 42  1  0
 19 43  1  0
 24 44  1  0
 25 45  1  0
 26 46  1  0
 27 47  1  0
 28 48  1  0
 31 49  1  0
M  END
$$$$

     RDKit          3D

 72 76  0  0  0  0  0  0  0  0999 V2000
    9.2629   -1.9225    2.8502 C   0  0  0  0  0  0  0  0  0  0  0  0
    8.7202   -2.6534    1.6282 C   0  0  0  0  0  0  0  0  0  0  0  0
    7.3105   -2.3308    1.4178 N   0  0  0  0  0  0  0  0  0  0  0  0
    6.8810   -1.1011    0.8178 C   0  0  0  0  0  0  0  0  0  0  0  0
    7.7297   -0.2192    0.5169 O   0  0  0  0  0  0  0  0  0  0  0  0
    5.4853   -0.8955    0.5420 N   0  0  0  0  0  0  0  0  0  0  0  0
    4.9604    0.2571   -0.1381 C   0  0  0  0  0  0  0  0  0  0  0  0
    5.6736    1.7937   -0.1597 S   0  0  0  0  0  0  0  0  0  0  0  0
    4.4638    2.5081   -1.0771 C   0  0  0  0  0  0  0  0  0  0  0  0
    4.4066    3.8211   -1.5397 C   0  0  0  0  0  0  0  0  0  0  0  0
    3.3261    4.1914   -2.3524 C   0  0  0  0  0  0  0  0  0  0  0  0
    2.3398    3.2479   -2.6955 C   0  0  0  0  0  0  0  0  0  0  0  0
    2.4191    1.9284   -2.2197 C   0  0  0  0  0  0  0  0  0  0  0  0
    3.4855    1.5694   -1.3829 C   0  0  0  0  0  0  0  0  0  0  0  0
    3.7406    0.2971   -0.8293 C   0  0  0  0  0  0  0  0  0  0  0  0
    2.8591   -0.8768   -0.9986 C   0  0  0  0  0  0  0  0  0  0  0  0
    3.3641   -1.9684   -1.3771 O   0  0  0  0  0  0  0  0  0  0  0  0
    1.4430   -0.7946   -0.7535 N   0  0  0  0  0  0  0  0  0  0  0  0
    0.5381   -1.6819   -1.4965 C   0  0  0  0  0  0  0  0  0  0  0  0
   -0.8714   -1.0913   -1.5424 C   0  0  0  0  0  0  0  0  0  0  0  0
   -1.4341   -0.8925   -0.1110 C   0  0  0  0  0  0  0  0  0  0  0  0
   -2.6531   -0.0391   -0.0554 N   0  0  0  0  0  0  0  0  0  0  0  0
   -2.4669    1.3404   -0.5577 C   0  0  0  0  0  0  0  0  0  0  0  0
   -3.6811    2.1969   -0.1869 C   0  0  0  0  0  0  0  0  0  0  0  0
   -4.9637    1.5876   -0.7673 C   0  0  0  0  0  0  0  0  0  0  0  0
   -5.1131    0.0975   -0.3728 C   0  0  1  0  0  0  0  0  0  0  0  0
   -3.8160   -0.6780   -0.7083 C   0  0  0  0  0  0  0  0  0  0  0  0
   -5.5240   -0.0774    1.1193 C   0  0  0  0  0  0  0  0  0  0  0  0
   -6.9032   -0.8043    1.1261 C   0  0  0  0  0  0  0  0  0  0  0  0
   -6.8142   -2.1726    1.8158 C   0  0  0  0  0  0  0  0  0  0  0  0
   -7.9886    0.0582    1.7874 C   0  0  0  0  0  0  0  0  0  0  0  0
   -7.2396   -0.9952   -0.2370 O   0  0  0  0  0  0  0  0  0  0  0  0
   -6.2711   -0.5087   -1.0841 C   0  0  0  0  0  0  0  0  0  0  0  0
   -6.3736   -0.5817   -2.3376 O   0  0  0  0  0  0  0  0  0  0  0  0
   -0.3606   -0.4178    0.9093 C   0  0  0  0  0  0  0  0  0  0  0  0
    0.9092    0.1411    0.2506 C   0  0  0  0  0  0  0  0  0  0  0  0
   10.3294   -2.1909    3.0000 H   0  0  0  0  0  0  0  0  0  0  0  0
    9.1885   -0.8240    2.7146 H   0  0  0  0  0  0  0  0  0  0  0  0
    8.6881   -2.2182    3.7533 H   0  0  0  0  0  0  0  0  0  0  0  0
    9.3116   -2.3856    0.7263 H   0  0  0  0  0  0  0  0  0  0  0  0
    8.8266   -3.7464    1.7928 H   0  0  0  0  0  0  0  0  0  0  0  0
    6.5950   -3.0626    1.6353 H   0  0  0  0  0  0  0  0  0  0  0  0
    4.8217   -1.6639    0.7968 H   0  0  0  0  0  0  0  0  0  0  0  0
    5.1820    4.5323   -1.2914 H   0  0  0  0  0  0  0  0  0  0  0  0
    3.2593    5.2048   -2.7265 H   0  0  0  0  0  0  0  0  0  0  0  0
    1.5216    3.5338   -3.3417 H   0  0  0  0  0  0  0  0  0  0  0  0
    1.6691    1.2067   -2.5167 H   0  0  0  0  0  0  0  0  0  0  0  0
    0.8996   -1.8008   -2.5433 H   0  0  0  0  0  0  0  0  0  0  0  0
    0.5209   -2.6846   -1.0152 H   0  0  0  0  0  0  0  0  0  0  0  0
   -1.5336   -1.7762   -2.1150 H   0  0  0  0  0  0  0  0  0  0  0  0
   -0.8089   -0.1328   -2.0952 H   0  0  0  0  0  0  0  0  0  0  0  0
   -1.7261   -1.9095    0.2421 H   0  0  0  0  0  0  0  0  0  0  0  0
   -1.5707    1.8082   -0.1027 H   0  0  0  0  0  0  0  0  0  0  0  0
   -2.3498    1.3593   -1.6628 H   0  0  0  0  0  0  0  0  0  0  0  0
   -3.7594    2.2687    0.9193 H   0  0  0  0  0  0  0  0  0  0  0  0
   -3.5474    3.2247   -0.5895 H   0  0  0  0  0  0  0  0  0  0  0  0
   -5.8434    2.1743   -0.4184 H   0  0  0  0  0  0  0  0  0  0  0  0
   -4.9246    1.6799   -1.8768 H   0  0  0  0  0  0  0  0  0  0  0  0
   -3.6697   -0.7020   -1.8124 H   0  0  0  0  0  0  0  0  0  0  0  0
   -3.9256   -1.7304   -0.3625 H   0  0  0  0  0  0  0  0  0  0  0  0
   -4.7594   -0.6577    1.6850 H   0  0  0  0  0  0  0  0  0  0  0  0
   -5.5939    0.9062    1.6354 H   0  0  0  0  0  0  0  0  0  0  0  0
   -6.5515   -2.0541    2.8897 H   0  0  0  0  0  0  0  0  0  0  0  0
   -6.0365   -2.8011    1.3264 H   0  0  0  0  0  0  0  0  0  0  0  0
   -7.7870   -2.7059    1.7393 H   0  0  0  0  0  0  0  0  0  0  0  0
   -8.9720   -0.4584    1.7446 H   0  0  0  0  0  0  0  0  0  0  0  0
   -8.0813    1.0276    1.2485 H   0  0  0  0  0  0  0  0  0  0  0  0
   -7.7351    0.2583    2.8513 H   0  0  0  0  0  0  0  0  0  0  0  0
   -0.0540   -1.2839    1.5396 H   0  0  0  0  0  0  0  0  0  0  0  0
   -0.7804    0.3392    1.6073 H   0  0  0  0  0  0  0  0  0  0  0  0
    1.6637    0.3149    1.0489 H   0  0  0  0  0  0  0  0  0  0  0  0
    0.6889    1.1146   -0.2275 H   0  0  0  0  0  0  0  0  0  0  0  0
  1  2  1  0
  2  3  1  0
  3  4  1  0
  4  5  2  0
  4  6  1  0
  6  7  1  0
  7  8  1  0
  8  9  1  0
  9 10  2  0
 10 11  1  0
 11 12  2  0
 12 13  1  0
 13 14  2  0
 14 15  1  0
 15 16  1  0
 16 17  2  0
 16 18  1  0
 18 19  1  0
 19 20  1  0
 20 21  1  0
 21 22  1  0
 22 23  1  0
 23 24  1  0
 24 25  1  0
 25 26  1  0
 26 27  1  0
 26 28  1  0
 28 29  1  0
 29 30  1  0
 29 31  1  0
 29 32  1  0
 32 33  1  0
 33 34  2  0
 21 35  1  0
 35 36  1  0
 15  7  2  0
 36 18  1  0
 14  9  1  0
 27 22  1  0
 26 33  1  6
  1 37  1  0
  1 38  1  0
  1 39  1  0
  2 40  1  0
  2 41  1  0
  3 42  1  0
  6 43  1  0
 10 44  1  0
 11 45  1  0
 12 46  1  0
 13 47  1  0
 19 48  1  0
 19 49  1  0
 20 50  1  0
 20 51  1  0
 21 52  1  0
 23 53  1  0
 23 54  1  0
 24 55  1  0
 24 56  1  0
 25 57  1  0
 25 58  1  0
 27 59  1  0
 27 60  1  0
 28 61  1  0
 28 62  1  0
 30 63  1  0
 30 64  1  0
 30 65  1  0
 31 66  1  0
 31 67  1  0
 31 68  1  0
 35 69  1  0
 35 70  1  0
 36 71  1  0
 36 72  1  0
M  END
$$$$

     RDKit          3D

 74 78  0  0  0  0  0  0  0  0999 V2000
    7.0919    3.6848   -2.4652 C   0  0  0  0  0  0  0  0  0  0  0  0
    7.9551    2.5100   -2.4331 N   0  0  0  0  0  0  0  0  0  0  0  0
    7.5750    1.2739   -1.8100 C   0  0  0  0  0  0  0  0  0  0  0  0
    8.4465    0.3764   -1.6588 O   0  0  0  0  0  0  0  0  0  0  0  0
    6.2153    1.0330   -1.4095 N   0  0  0  0  0  0  0  0  0  0  0  0
    5.8102   -0.1179   -0.6534 C   0  0  0  0  0  0  0  0  0  0  0  0
    6.7618   -0.8935    0.5179 S   0  0  0  0  0  0  0  0  0  0  0  0
    5.5646   -1.9833    0.9488 C   0  0  0  0  0  0  0  0  0  0  0  0
    5.6629   -2.9704    1.8715 N   0  0  0  0  0  0  0  0  0  0  0  0
    4.6006   -3.8003    2.0944 C   0  0  0  0  0  0  0  0  0  0  0  0
    4.7225   -4.9045    3.0943 C   0  0  0  0  0  0  0  0  0  0  0  0
    3.4220   -3.6578    1.3298 C   0  0  0  0  0  0  0  0  0  0  0  0
    3.3291   -2.6374    0.3724 C   0  0  0  0  0  0  0  0  0  0  0  0
    4.4160   -1.7723    0.2039 C   0  0  0  0  0  0  0  0  0  0  0  0
    4.5321   -0.6956   -0.6945 C   0  0  0  0  0  0  0  0  0  0  0  0
    3.4605   -0.2507   -1.6100 C   0  0  0  0  0  0  0  0  0  0  0  0
    3.7430   -0.0417   -2.8213 O   0  0  0  0  0  0  0  0  0  0  0  0
    2.1096   -0.0550   -1.1508 N   0  0  0  0  0  0  0  0  0  0  0  0
    1.0007   -0.3274   -2.0700 C   0  0  0  0  0  0  0  0  0  0  0  0
   -0.3611   -0.1313   -1.3932 C   0  0  0  0  0  0  0  0  0  0  0  0
   -0.4476    1.2530   -0.6937 C   0  0  0  0  0  0  0  0  0  0  0  0
   -1.7146    1.4686    0.0761 N   0  0  0  0  0  0  0  0  0  0  0  0
   -1.8950    2.9207    0.3371 C   0  0  0  0  0  0  0  0  0  0  0  0
   -3.0754    3.1704    1.2758 C   0  0  0  0  0  0  0  0  0  0  0  0
   -4.3627    2.6107    0.6679 C   0  0  0  0  0  0  0  0  0  0  0  0
   -4.1885    1.1273    0.2815 C   0  0  1  0  0  0  0  0  0  0  0  0
   -4.1504    0.2019    1.5404 C   0  0  0  0  0  0  0  0  0  0  0  0
   -5.3286   -0.6933    1.3703 C   0  0  0  0  0  0  0  0  0  0  0  0
   -5.6388   -1.5926    2.1973 O   0  0  0  0  0  0  0  0  0  0  0  0
   -6.0788   -0.4240    0.1957 N   0  0  0  0  0  0  0  0  0  0  0  0
   -7.1862   -1.2127   -0.3617 C   0  0  0  0  0  0  0  0  0  0  0  0
   -6.7187   -2.6296   -0.7047 C   0  0  0  0  0  0  0  0  0  0  0  0
   -8.3765   -1.2366    0.6003 C   0  0  0  0  0  0  0  0  0  0  0  0
   -5.4053    0.6396   -0.4585 C   0  0  0  0  0  0  0  0  0  0  0  0
   -5.7896    1.1147   -1.5609 O   0  0  0  0  0  0  0  0  0  0  0  0
   -2.9277    0.9450   -0.6018 C   0  0  0  0  0  0  0  0  0  0  0  0
    0.7784    1.4785    0.2503 C   0  0  0  0  0  0  0  0  0  0  0  0
    1.8292    0.3613    0.2283 C   0  0  0  0  0  0  0  0  0  0  0  0
    6.1623    3.4659   -3.0351 H   0  0  0  0  0  0  0  0  0  0  0  0
    7.6232    4.5226   -2.9657 H   0  0  0  0  0  0  0  0  0  0  0  0
    6.8379    3.9944   -1.4272 H   0  0  0  0  0  0  0  0  0  0  0  0
    8.9238    2.5959   -2.8153 H   0  0  0  0  0  0  0  0  0  0  0  0
    5.4685    1.6825   -1.7451 H   0  0  0  0  0  0  0  0  0  0  0  0
    5.5396   -4.6861    3.8145 H   0  0  0  0  0  0  0  0  0  0  0  0
    3.7730   -5.0157    3.6623 H   0  0  0  0  0  0  0  0  0  0  0  0
    4.9507   -5.8567    2.5725 H   0  0  0  0  0  0  0  0  0  0  0  0
    2.5888   -4.3346    1.4710 H   0  0  0  0  0  0  0  0  0  0  0  0
    2.4334   -2.5425   -0.2265 H   0  0  0  0  0  0  0  0  0  0  0  0
    1.0715   -1.3763   -2.4300 H   0  0  0  0  0  0  0  0  0  0  0  0
    1.0738    0.3497   -2.9480 H   0  0  0  0  0  0  0  0  0  0  0  0
   -1.1258   -0.2122   -2.1940 H   0  0  0  0  0  0  0  0  0  0  0  0
   -0.5286   -0.9453   -0.6532 H   0  0  0  0  0  0  0  0  0  0  0  0
   -0.3866    2.0057   -1.5153 H   0  0  0  0  0  0  0  0  0  0  0  0
   -2.0568    3.4769   -0.6156 H   0  0  0  0  0  0  0  0  0  0  0  0
   -0.9942    3.3539    0.8206 H   0  0  0  0  0  0  0  0  0  0  0  0
   -2.8745    2.6957    2.2605 H   0  0  0  0  0  0  0  0  0  0  0  0
   -3.1911    4.2636    1.4398 H   0  0  0  0  0  0  0  0  0  0  0  0
   -5.2001    2.7303    1.3909 H   0  0  0  0  0  0  0  0  0  0  0  0
   -4.6141    3.2090   -0.2353 H   0  0  0  0  0  0  0  0  0  0  0  0
   -3.2243   -0.4102    1.5899 H   0  0  0  0  0  0  0  0  0  0  0  0
   -4.2622    0.7661    2.4904 H   0  0  0  0  0  0  0  0  0  0  0  0
   -7.5374   -0.7396   -1.3056 H   0  0  0  0  0  0  0  0  0  0  0  0
   -5.8301   -2.5863   -1.3715 H   0  0  0  0  0  0  0  0  0  0  0  0
   -7.5246   -3.1786   -1.2354 H   0  0  0  0  0  0  0  0  0  0  0  0
   -6.4496   -3.1919    0.2139 H   0  0  0  0  0  0  0  0  0  0  0  0
   -9.2351   -1.7580    0.1248 H   0  0  0  0  0  0  0  0  0  0  0  0
   -8.1239   -1.7650    1.5418 H   0  0  0  0  0  0  0  0  0  0  0  0
   -8.6895   -0.2010    0.8452 H   0  0  0  0  0  0  0  0  0  0  0  0
   -3.0652    1.4541   -1.5851 H   0  0  0  0  0  0  0  0  0  0  0  0
   -2.8366   -0.1453   -0.7862 H   0  0  0  0  0  0  0  0  0  0  0  0
    0.4463    1.5831    1.3069 H   0  0  0  0  0  0  0  0  0  0  0  0
    1.2739    2.4343   -0.0292 H   0  0  0  0  0  0  0  0  0  0  0  0
    1.4513   -0.5101    0.8047 H   0  0  0  0  0  0  0  0  0  0  0  0
    2.7509    0.7295    0.7303 H   0  0  0  0  0  0  0  0  0  0  0  0
  1  2  1  0
  2  3  1  0
  3  4  2  0
  3  5  1  0
  5  6  1  0
  6  7  1  0
  7  8  1  0
  8  9  2  0
  9 10  1  0
 10 11  1  0
 10 12  2  0
 12 13  1  0
 13 14  2  0
 14 15  1  0
 15 16  1  0
 16 17  2  0
 16 18  1  0
 18 19  1  0
 19 20  1  0
 20 21  1  0
 21 22  1  0
 22 23  1  0
 23 24  1  0
 24 25  1  0
 25 26  1  0
 26 27  1  0
 27 28  1  0
 28 29  2  0
 28 30  1  0
 30 31  1  0
 31 32  1  0
 31 33  1  0
 30 34  1  0
 34 35  2  0
 26 36  1  0
 21 37  1  0
 37 38  1  0
 15  6  2  0
 38 18  1  0
 14  8  1  0
 36 22  1  0
 26 34  1  6
  1 39  1  0
  1 40  1  0
  1 41  1  0
  2 42  1  0
  5 43  1  0
 11 44  1  0
 11 45  1  0
 11 46  1  0
 12 47  1  0
 13 48  1  0
 19 49  1  0
 19 50  1  0
 20 51  1  0
 20 52  1  0
 21 53  1  0
 23 54  1  0
 23 55  1  0
 24 56  1  0
 24 57  1  0
 25 58  1  0
 25 59  1  0
 27 60  1  0
 27 61  1  0
 31 62  1  0
 32 63  1  0
 32 64  1  0
 32 65  1  0
 33 66  1  0
 33 67  1  0
 33 68  1  0
 36 69  1  0
 36 70  1  0
 37 71  1  0
 37 72  1  0
 38 73  1  0
 38 74  1  0
M  END
$$$$

     RDKit          3D

 62 65  0  0  0  0  0  0  0  0999 V2000
    2.1012   -4.0731    1.1268 C   0  0  0  0  0  0  0  0  0  0  0  0
    1.0168   -4.1458    0.1536 N   0  0  0  0  0  0  0  0  0  0  0  0
    0.5559   -3.0070   -0.5890 C   0  0  0  0  0  0  0  0  0  0  0  0
   -0.5631   -3.0634   -1.1659 O   0  0  0  0  0  0  0  0  0  0  0  0
    1.3536   -1.7657   -0.6889 C   0  0  0  0  0  0  0  0  0  0  0  0
    2.6622   -1.8286   -1.1928 C   0  0  0  0  0  0  0  0  0  0  0  0
    3.4416   -0.6754   -1.3260 C   0  0  0  0  0  0  0  0  0  0  0  0
    4.7465   -0.8226   -1.8255 O   0  0  0  0  0  0  0  0  0  0  0  0
    5.7745    0.1734   -1.8392 C   0  0  0  0  0  0  0  0  0  0  0  0
    6.6248    0.1566   -0.5420 C   0  0  0  0  0  0  0  0  0  0  0  0
    5.8084    0.6190    0.6807 C   0  0  0  0  0  0  0  0  0  0  0  0
    7.1620   -1.2611   -0.2854 C   0  0  0  0  0  0  0  0  0  0  0  0
    7.7333    1.0090   -0.7063 O   0  0  0  0  0  0  0  0  0  0  0  0
    2.8891    0.5673   -0.9680 C   0  0  0  0  0  0  0  0  0  0  0  0
    1.5829    0.6437   -0.4806 C   0  0  0  0  0  0  0  0  0  0  0  0
    0.7976   -0.5132   -0.3490 C   0  0  0  0  0  0  0  0  0  0  0  0
   -0.5284   -0.4305    0.2033 N   0  0  0  0  0  0  0  0  0  0  0  0
   -1.4818    0.5780   -0.1738 C   0  0  0  0  0  0  0  0  0  0  0  0
   -1.2076    1.3867   -1.1018 O   0  0  0  0  0  0  0  0  0  0  0  0
   -2.8166    0.6121    0.4673 C   0  0  0  0  0  0  0  0  0  0  0  0
   -3.3022   -0.5366    1.0124 N   0  0  0  0  0  0  0  0  0  0  0  0
   -4.5439   -0.6123    1.5577 C   0  0  0  0  0  0  0  0  0  0  0  0
   -5.0199   -1.8959    2.1716 C   0  0  0  0  0  0  0  0  0  0  0  0
   -4.8204   -3.1355    1.3099 C   0  0  0  0  0  0  0  0  0  0  0  0
   -6.2066   -2.5354    1.4652 C   0  0  0  0  0  0  0  0  0  0  0  0
   -5.3421    0.5324    1.5866 C   0  0  0  0  0  0  0  0  0  0  0  0
   -4.8664    1.6892    1.0612 N   0  0  0  0  0  0  0  0  0  0  0  0
   -3.6310    1.7691    0.4933 C   0  0  0  0  0  0  0  0  0  0  0  0
   -3.1500    3.0413    0.0289 N   0  0  0  0  0  0  0  0  0  0  0  0
   -4.0059    4.0628   -0.5121 C   0  0  0  0  0  0  0  0  0  0  0  0
   -3.6218    5.4069   -0.4496 C   0  0  0  0  0  0  0  0  0  0  0  0
   -4.4205    6.3703   -0.9776 N   0  0  0  0  0  0  0  0  0  0  0  0
   -5.5930    6.0507   -1.5833 C   0  0  0  0  0  0  0  0  0  0  0  0
   -5.9782    4.7521   -1.6770 N   0  0  0  0  0  0  0  0  0  0  0  0
   -5.2120    3.7566   -1.1604 C   0  0  0  0  0  0  0  0  0  0  0  0
    3.0714   -3.9238    0.6129 H   0  0  0  0  0  0  0  0  0  0  0  0
    1.9195   -3.2373    1.8355 H   0  0  0  0  0  0  0  0  0  0  0  0
    2.1539   -5.0219    1.7005 H   0  0  0  0  0  0  0  0  0  0  0  0
    0.4697   -5.0332    0.0922 H   0  0  0  0  0  0  0  0  0  0  0  0
    3.0802   -2.7808   -1.4963 H   0  0  0  0  0  0  0  0  0  0  0  0
    5.3675    1.1830   -2.0507 H   0  0  0  0  0  0  0  0  0  0  0  0
    6.4477   -0.0588   -2.6924 H   0  0  0  0  0  0  0  0  0  0  0  0
    6.4654    0.6866    1.5738 H   0  0  0  0  0  0  0  0  0  0  0  0
    4.9901   -0.0955    0.9111 H   0  0  0  0  0  0  0  0  0  0  0  0
    5.3703    1.6235    0.5000 H   0  0  0  0  0  0  0  0  0  0  0  0
    7.8327   -1.2637    0.6009 H   0  0  0  0  0  0  0  0  0  0  0  0
    6.3312   -1.9756   -0.0966 H   0  0  0  0  0  0  0  0  0  0  0  0
    7.7449   -1.6191   -1.1617 H   0  0  0  0  0  0  0  0  0  0  0  0
    7.3916    1.9291   -0.8617 H   0  0  0  0  0  0  0  0  0  0  0  0
    3.4517    1.4837   -1.0540 H   0  0  0  0  0  0  0  0  0  0  0  0
    1.1929    1.6078   -0.1810 H   0  0  0  0  0  0  0  0  0  0  0  0
   -0.8308   -1.1845    0.8604 H   0  0  0  0  0  0  0  0  0  0  0  0
   -4.9657   -2.0494    3.2700 H   0  0  0  0  0  0  0  0  0  0  0  0
   -4.6725   -4.0768    1.8810 H   0  0  0  0  0  0  0  0  0  0  0  0
   -4.3777   -2.9748    0.3027 H   0  0  0  0  0  0  0  0  0  0  0  0
   -6.5746   -2.0157    0.5540 H   0  0  0  0  0  0  0  0  0  0  0  0
   -6.8776   -3.1204    2.1285 H   0  0  0  0  0  0  0  0  0  0  0  0
   -6.3286    0.5089    2.0311 H   0  0  0  0  0  0  0  0  0  0  0  0
   -2.1478    3.2829    0.2025 H   0  0  0  0  0  0  0  0  0  0  0  0
   -2.6914    5.6888    0.0257 H   0  0  0  0  0  0  0  0  0  0  0  0
   -6.2167    6.8305   -1.9983 H   0  0  0  0  0  0  0  0  0  0  0  0
   -5.5364    2.7316   -1.2750 H   0  0  0  0  0  0  0  0  0  0  0  0
  1  2  1  0
  2  3  1  0
  3  4  2  0
  3  5  1  0
  5  6  2  0
  6  7  1  0
  7  8  1  0
  8  9  1  0
  9 10  1  0
 10 11  1  0
 10 12  1  0
 10 13  1  0
  7 14  2  0
 14 15  1  0
 15 16  2  0
 16 17  1  0
 17 18  1  0
 18 19  2  0
 18 20  1  0
 20 21  2  0
 21 22  1  0
 22 23  1  0
 23 24  1  0
 24 25  1  0
 22 26  2  0
 26 27  1  0
 27 28  2  0
 28 29  1  0
 29 30  1  0
 30 31  2  0
 31 32  1  0
 32 33  2  0
 33 34  1  0
 34 35  2  0
 16  5  1  0
 28 20  1  0
 35 30  1  0
 25 23  1  0
  1 36  1  0
  1 37  1  0
  1 38  1  0
  2 39  1  0
  6 40  1  0
  9 41  1  0
  9 42  1  0
 11 43  1  0
 11 44  1  0
 11 45  1  0
 12 46  1  0
 12 47  1  0
 12 48  1  0
 13 49  1  0
 14 50  1  0
 15 51  1  0
 17 52  1  0
 23 53  1  0
 24 54  1  0
 24 55  1  0
 25 56  1  0
 25 57  1  0
 26 58  1  0
 29 59  1  0
 31 60  1  0
 33 61  1  0
 35 62  1  0
M  END
$$$$

     RDKit          3D

 78 82  0  0  0  0  0  0  0  0999 V2000
    4.1732   -2.9107   -7.4583 C   0  0  0  0  0  0  0  0  0  0  0  0
    4.8590   -1.7660   -6.7200 C   0  0  0  0  0  0  0  0  0  0  0  0
    4.2892   -1.5867   -5.3849 N   0  0  0  0  0  0  0  0  0  0  0  0
    4.7812   -0.5804   -4.4907 C   0  0  0  0  0  0  0  0  0  0  0  0
    5.7299    0.1676   -4.8508 O   0  0  0  0  0  0  0  0  0  0  0  0
    4.2077   -0.4546   -3.1801 N   0  0  0  0  0  0  0  0  0  0  0  0
    4.5522    0.5767   -2.2385 C   0  0  0  0  0  0  0  0  0  0  0  0
    5.2795    2.0606   -2.6275 S   0  0  0  0  0  0  0  0  0  0  0  0
    5.2237    2.6479   -1.0603 C   0  0  0  0  0  0  0  0  0  0  0  0
    5.6963    3.8413   -0.6253 N   0  0  0  0  0  0  0  0  0  0  0  0
    5.6025    4.1650    0.6976 C   0  0  0  0  0  0  0  0  0  0  0  0
    6.1448    5.4715    1.1808 C   0  0  0  0  0  0  0  0  0  0  0  0
    5.0400    3.2476    1.6118 C   0  0  0  0  0  0  0  0  0  0  0  0
    4.5570    2.0123    1.1548 C   0  0  0  0  0  0  0  0  0  0  0  0
    4.6417    1.7228   -0.2111 C   0  0  0  0  0  0  0  0  0  0  0  0
    4.2378    0.5474   -0.8709 C   0  0  0  0  0  0  0  0  0  0  0  0
    3.5900   -0.5995   -0.2023 C   0  0  0  0  0  0  0  0  0  0  0  0
    4.0769   -1.7512   -0.3679 O   0  0  0  0  0  0  0  0  0  0  0  0
    2.4261   -0.4299    0.6313 N   0  0  0  0  0  0  0  0  0  0  0  0
    2.1853   -1.3942    1.7154 C   0  0  0  0  0  0  0  0  0  0  0  0
    0.9361   -1.0306    2.5252 C   0  0  0  0  0  0  0  0  0  0  0  0
   -0.2630   -0.8036    1.5810 C   0  0  0  0  0  0  0  0  0  0  0  0
   -1.5019   -0.5012    2.3455 N   0  0  0  0  0  0  0  0  0  0  0  0
   -1.4249    0.7245    3.1849 C   0  0  0  0  0  0  0  0  0  0  0  0
   -2.8125    1.2623    3.5918 C   0  0  0  0  0  0  0  0  0  0  0  0
   -3.8156    0.1143    3.7298 C   0  0  0  0  0  0  0  0  0  0  0  0
   -3.9797   -0.6628    2.3898 C   0  0  1  0  0  0  0  0  0  0  0  0
   -4.3443   -2.1549    2.6450 C   0  0  0  0  0  0  0  0  0  0  0  0
   -5.5556   -2.4911    1.7565 C   0  0  0  0  0  0  0  0  0  0  0  0
   -6.0597   -1.2225    1.2641 N   0  0  0  0  0  0  0  0  0  0  0  0
   -7.2770   -1.0954    0.4530 C   0  0  0  0  0  0  0  0  0  0  0  0
   -8.3059   -0.2047    1.1549 C   0  0  0  0  0  0  0  0  0  0  0  0
   -6.9464   -0.5754   -0.9490 C   0  0  0  0  0  0  0  0  0  0  0  0
   -5.1679   -0.1811    1.6279 C   0  0  0  0  0  0  0  0  0  0  0  0
   -5.3530    1.0253    1.3120 O   0  0  0  0  0  0  0  0  0  0  0  0
   -2.7121   -0.5338    1.4988 C   0  0  0  0  0  0  0  0  0  0  0  0
    0.0462    0.2255    0.4475 C   0  0  0  0  0  0  0  0  0  0  0  0
    1.5059    0.7017    0.4325 C   0  0  0  0  0  0  0  0  0  0  0  0
    3.0887   -2.6973   -7.5723 H   0  0  0  0  0  0  0  0  0  0  0  0
    4.3035   -3.8600   -6.8963 H   0  0  0  0  0  0  0  0  0  0  0  0
    4.6233   -3.0280   -8.4666 H   0  0  0  0  0  0  0  0  0  0  0  0
    4.7334   -0.8293   -7.3042 H   0  0  0  0  0  0  0  0  0  0  0  0
    5.9440   -1.9905   -6.6324 H   0  0  0  0  0  0  0  0  0  0  0  0
    3.5059   -2.2009   -5.0641 H   0  0  0  0  0  0  0  0  0  0  0  0
    3.5080   -1.1729   -2.8901 H   0  0  0  0  0  0  0  0  0  0  0  0
    7.0800    5.2972    1.7523 H   0  0  0  0  0  0  0  0  0  0  0  0
    6.3667    6.1417    0.3233 H   0  0  0  0  0  0  0  0  0  0  0  0
    5.4020    5.9715    1.8368 H   0  0  0  0  0  0  0  0  0  0  0  0
    4.9838    3.4874    2.6664 H   0  0  0  0  0  0  0  0  0  0  0  0
    4.1413    1.3018    1.8573 H   0  0  0  0  0  0  0  0  0  0  0  0
    3.0644   -1.4145    2.3960 H   0  0  0  0  0  0  0  0  0  0  0  0
    2.0537   -2.4100    1.2820 H   0  0  0  0  0  0  0  0  0  0  0  0
    0.7047   -1.8529    3.2378 H   0  0  0  0  0  0  0  0  0  0  0  0
    1.1548   -0.1146    3.1150 H   0  0  0  0  0  0  0  0  0  0  0  0
   -0.4161   -1.7893    1.0825 H   0  0  0  0  0  0  0  0  0  0  0  0
   -0.8605    1.5385    2.6841 H   0  0  0  0  0  0  0  0  0  0  0  0
   -0.8802    0.4710    4.1195 H   0  0  0  0  0  0  0  0  0  0  0  0
   -2.7344    1.8105    4.5557 H   0  0  0  0  0  0  0  0  0  0  0  0
   -3.1770    1.9804    2.8250 H   0  0  0  0  0  0  0  0  0  0  0  0
   -4.7920    0.5106    4.0864 H   0  0  0  0  0  0  0  0  0  0  0  0
   -3.4318   -0.5622    4.5253 H   0  0  0  0  0  0  0  0  0  0  0  0
   -4.6431   -2.3199    3.7041 H   0  0  0  0  0  0  0  0  0  0  0  0
   -3.4969   -2.8434    2.4322 H   0  0  0  0  0  0  0  0  0  0  0  0
   -6.3416   -3.0128    2.3448 H   0  0  0  0  0  0  0  0  0  0  0  0
   -5.2462   -3.1259    0.8985 H   0  0  0  0  0  0  0  0  0  0  0  0
   -7.7358   -2.1024    0.3329 H   0  0  0  0  0  0  0  0  0  0  0  0
   -8.5044   -0.5928    2.1761 H   0  0  0  0  0  0  0  0  0  0  0  0
   -7.9437    0.8413    1.2343 H   0  0  0  0  0  0  0  0  0  0  0  0
   -9.2606   -0.2066    0.5877 H   0  0  0  0  0  0  0  0  0  0  0  0
   -6.5559    0.4629   -0.9118 H   0  0  0  0  0  0  0  0  0  0  0  0
   -6.1831   -1.2283   -1.4228 H   0  0  0  0  0  0  0  0  0  0  0  0
   -7.8591   -0.5869   -1.5830 H   0  0  0  0  0  0  0  0  0  0  0  0
   -2.7645    0.3967    0.8886 H   0  0  0  0  0  0  0  0  0  0  0  0
   -2.6724   -1.3796    0.7756 H   0  0  0  0  0  0  0  0  0  0  0  0
   -0.6051    1.1207    0.5028 H   0  0  0  0  0  0  0  0  0  0  0  0
   -0.1730   -0.2526   -0.5328 H   0  0  0  0  0  0  0  0  0  0  0  0
    1.6593    1.4458    1.2435 H   0  0  0  0  0  0  0  0  0  0  0  0
    1.6972    1.2117   -0.5364 H   0  0  0  0  0  0  0  0  0  0  0  0
  1  2  1  0
  2  3  1  0
  3  4  1  0
  4  5  2  0
  4  6  1  0
  6  7  1  0
  7  8  1  0
  8  9  1  0
  9 10  2  0
 10 11  1  0
 11 12  1  0
 11 13  2  0
 13 14  1  0
 14 15  2  0
 15 16  1  0
 16 17  1  0
 17 18  2  0
 17 19  1  0
 19 20  1  0
 20 21  1  0
 21 22  1  0
 22 23  1  0
 23 24  1  0
 24 25  1  0
 25 26  1  0
 26 27  1  0
 27 28  1  0
 28 29  1  0
 29 30  1  0
 30 31  1  0
 31 32  1  0
 31 33  1  0
 30 34  1  0
 34 35  2  0
 27 36  1  0
 22 37  1  0
 37 38  1  0
 16  7  2  0
 38 19  1  0
 15  9  1  0
 36 23  1  0
 27 34  1  6
  1 39  1  0
  1 40  1  0
  1 41  1  0
  2 42  1  0
  2 43  1  0
  3 44  1  0
  6 45  1  0
 12 46  1  0
 12 47  1  0
 12 48  1  0
 13 49  1  0
 14 50  1  0
 20 51  1  0
 20 52  1  0
 21 53  1  0
 21 54  1  0
 22 55  1  0
 24 56  1  0
 24 57  1  0
 25 58  1  0
 25 59  1  0
 26 60  1  0
 26 61  1  0
 28 62  1  0
 28 63  1  0
 29 64  1  0
 29 65  1  0
 31 66  1  0
 32 67  1  0
 32 68  1  0
 32 69  1  0
 33 70  1  0
 33 71  1  0
 33 72  1  0
 36 73  1  0
 36 74  1  0
 37 75  1  0
 37 76  1  0
 38 77  1  0
 38 78  1  0
M  END
$$$$

     RDKit          3D

 70 74  0  0  0  0  0  0  0  0999 V2000
   -9.3331    2.8354   -0.2176 C   0  0  0  0  0  0  0  0  0  0  0  0
   -8.8545    2.2317   -1.5341 C   0  0  0  0  0  0  0  0  0  0  0  0
   -7.4655    1.7918   -1.4225 N   0  0  0  0  0  0  0  0  0  0  0  0
   -7.0838    0.5900   -0.7370 C   0  0  0  0  0  0  0  0  0  0  0  0
   -7.9618   -0.1256   -0.1842 O   0  0  0  0  0  0  0  0  0  0  0  0
   -5.7019    0.1998   -0.7129 N   0  0  0  0  0  0  0  0  0  0  0  0
   -5.1859   -0.9332    0.0063 C   0  0  0  0  0  0  0  0  0  0  0  0
   -5.9595   -1.7255    1.2979 S   0  0  0  0  0  0  0  0  0  0  0  0
   -4.6788   -2.7655    1.5917 C   0  0  0  0  0  0  0  0  0  0  0  0
   -4.6004   -3.7393    2.5303 N   0  0  0  0  0  0  0  0  0  0  0  0
   -3.4641   -4.4902    2.6044 C   0  0  0  0  0  0  0  0  0  0  0  0
   -2.3986   -4.2455    1.7130 C   0  0  0  0  0  0  0  0  0  0  0  0
   -2.5067   -3.2576    0.7774 N   0  0  0  0  0  0  0  0  0  0  0  0
   -3.6426   -2.5138    0.7186 C   0  0  0  0  0  0  0  0  0  0  0  0
   -3.9021   -1.4693   -0.1768 C   0  0  0  0  0  0  0  0  0  0  0  0
   -2.9508   -0.9993   -1.2015 C   0  0  0  0  0  0  0  0  0  0  0  0
   -3.3214   -0.9981   -2.4074 O   0  0  0  0  0  0  0  0  0  0  0  0
   -1.6420   -0.5017   -0.8443 N   0  0  0  0  0  0  0  0  0  0  0  0
   -0.6805   -0.1754   -1.9128 C   0  0  0  0  0  0  0  0  0  0  0  0
    0.7762   -0.3997   -1.4706 C   0  0  0  0  0  0  0  0  0  0  0  0
    1.0529   -0.0258    0.0159 C   0  0  0  0  0  0  0  0  0  0  0  0
    2.3625    0.6441    0.2380 N   0  0  0  0  0  0  0  0  0  0  0  0
    2.4412    2.0395   -0.2694 C   0  0  0  0  0  0  0  0  0  0  0  0
    3.8853    2.5810   -0.2907 C   0  0  0  0  0  0  0  0  0  0  0  0
    4.7561    1.8570    0.7412 C   0  0  0  0  0  0  0  0  0  0  0  0
    4.8195    0.3297    0.4432 C   0  0  0  0  0  0  0  0  0  0  0  0
    3.5054   -0.1734   -0.2200 C   0  0  0  0  0  0  0  0  0  0  0  0
    6.0655   -0.0402   -0.4128 C   0  0  0  0  0  0  0  0  0  0  0  0
    7.0547   -0.7875    0.5300 C   0  0  0  0  0  0  0  0  0  0  0  0
    7.4826   -2.1399   -0.0570 C   0  0  0  0  0  0  0  0  0  0  0  0
    8.2885    0.0721    0.8369 C   0  0  0  0  0  0  0  0  0  0  0  0
    6.3345   -1.0088    1.7304 O   0  0  0  0  0  0  0  0  0  0  0  0
    5.0940   -0.4122    1.7056 C   0  0  0  0  0  0  0  0  0  0  0  0
    4.2911   -0.4819    2.6745 O   0  0  0  0  0  0  0  0  0  0  0  0
   -0.1066    0.7724    0.6403 C   0  0  0  0  0  0  0  0  0  0  0  0
   -1.4067   -0.0260    0.5309 C   0  0  0  0  0  0  0  0  0  0  0  0
  -10.3743    3.2031   -0.3370 H   0  0  0  0  0  0  0  0  0  0  0  0
   -8.6816    3.6890    0.0701 H   0  0  0  0  0  0  0  0  0  0  0  0
   -9.3133    2.0744    0.5905 H   0  0  0  0  0  0  0  0  0  0  0  0
   -9.5028    1.3773   -1.8230 H   0  0  0  0  0  0  0  0  0  0  0  0
   -8.9312    3.0061   -2.3288 H   0  0  0  0  0  0  0  0  0  0  0  0
   -6.7269    2.3605   -1.8968 H   0  0  0  0  0  0  0  0  0  0  0  0
   -5.0319    0.7705   -1.2752 H   0  0  0  0  0  0  0  0  0  0  0  0
   -3.3787   -5.2704    3.3493 H   0  0  0  0  0  0  0  0  0  0  0  0
   -1.4971   -4.8397    1.7702 H   0  0  0  0  0  0  0  0  0  0  0  0
   -0.8643   -0.8012   -2.8131 H   0  0  0  0  0  0  0  0  0  0  0  0
   -0.8194    0.8870   -2.2086 H   0  0  0  0  0  0  0  0  0  0  0  0
    1.0278   -1.4738   -1.6129 H   0  0  0  0  0  0  0  0  0  0  0  0
    1.4289    0.1640   -2.1671 H   0  0  0  0  0  0  0  0  0  0  0  0
    1.0816   -0.9846    0.5853 H   0  0  0  0  0  0  0  0  0  0  0  0
    2.0122    2.1316   -1.2883 H   0  0  0  0  0  0  0  0  0  0  0  0
    1.8502    2.6953    0.4025 H   0  0  0  0  0  0  0  0  0  0  0  0
    3.8806    3.6723   -0.0807 H   0  0  0  0  0  0  0  0  0  0  0  0
    4.3233    2.4347   -1.3023 H   0  0  0  0  0  0  0  0  0  0  0  0
    4.3090    2.0411    1.7447 H   0  0  0  0  0  0  0  0  0  0  0  0
    5.7718    2.3110    0.7604 H   0  0  0  0  0  0  0  0  0  0  0  0
    3.5881   -0.0988   -1.3280 H   0  0  0  0  0  0  0  0  0  0  0  0
    3.3479   -1.2503    0.0185 H   0  0  0  0  0  0  0  0  0  0  0  0
    5.7785   -0.6974   -1.2630 H   0  0  0  0  0  0  0  0  0  0  0  0
    6.5325    0.8583   -0.8740 H   0  0  0  0  0  0  0  0  0  0  0  0
    8.1729   -2.6620    0.6400 H   0  0  0  0  0  0  0  0  0  0  0  0
    7.9991   -1.9956   -1.0311 H   0  0  0  0  0  0  0  0  0  0  0  0
    6.5929   -2.7878   -0.2149 H   0  0  0  0  0  0  0  0  0  0  0  0
    8.9531   -0.4497    1.5579 H   0  0  0  0  0  0  0  0  0  0  0  0
    7.9798    1.0401    1.2874 H   0  0  0  0  0  0  0  0  0  0  0  0
    8.8620    0.2780   -0.0926 H   0  0  0  0  0  0  0  0  0  0  0  0
   -0.2450    1.7447    0.1196 H   0  0  0  0  0  0  0  0  0  0  0  0
    0.1117    0.9773    1.7106 H   0  0  0  0  0  0  0  0  0  0  0  0
   -1.3513   -0.8943    1.2194 H   0  0  0  0  0  0  0  0  0  0  0  0
   -2.2485    0.6238    0.8560 H   0  0  0  0  0  0  0  0  0  0  0  0
  1  2  1  0
  2  3  1  0
  3  4  1  0
  4  5  2  0
  4  6  1  0
  6  7  1  0
  7  8  1  0
  8  9  1  0
  9 10  2  0
 10 11  1  0
 11 12  2  0
 12 13  1  0
 13 14  2  0
 14 15  1  0
 15 16  1  0
 16 17  2  0
 16 18  1  0
 18 19  1  0
 19 20  1  0
 20 21  1  0
 21 22  1  0
 22 23  1  0
 23 24  1  0
 24 25  1  0
 25 26  1  0
 26 27  1  0
 26 28  1  0
 28 29  1  0
 29 30  1  0
 29 31  1  0
 29 32  1  0
 32 33  1  0
 33 34  2  0
 21 35  1  0
 35 36  1  0
 15  7  2  0
 36 18  1  0
 14  9  1  0
 27 22  1  0
 33 26  1  0
  1 37  1  0
  1 38  1  0
  1 39  1  0
  2 40  1  0
  2 41  1  0
  3 42  1  0
  6 43  1  0
 11 44  1  0
 12 45  1  0
 19 46  1  0
 19 47  1  0
 20 48  1  0
 20 49  1  0
 21 50  1  0
 23 51  1  0
 23 52  1  0
 24 53  1  0
 24 54  1  0
 25 55  1  0
 25 56  1  0
 27 57  1  0
 27 58  1  0
 28 59  1  0
 28 60  1  0
 30 61  1  0
 30 62  1  0
 30 63  1  0
 31 64  1  0
 31 65  1  0
 31 66  1  0
 35 67  1  0
 35 68  1  0
 36 69  1  0
 36 70  1  0
M  END
$$$$

     RDKit          3D

 65 68  0  0  0  0  0  0  0  0999 V2000
    7.8886   -3.2075   -0.7113 C   0  0  0  0  0  0  0  0  0  0  0  0
    7.7428   -2.0945    0.1682 O   0  0  0  0  0  0  0  0  0  0  0  0
    6.5834   -1.3091    0.2645 C   0  0  0  0  0  0  0  0  0  0  0  0
    6.5759   -0.2402    1.1705 C   0  0  0  0  0  0  0  0  0  0  0  0
    5.4469    0.5759    1.3017 C   0  0  0  0  0  0  0  0  0  0  0  0
    4.3101    0.3297    0.5243 C   0  0  0  0  0  0  0  0  0  0  0  0
    3.2190    1.1306    0.6345 N   0  0  0  0  0  0  0  0  0  0  0  0
    2.0884    0.9353   -0.1014 C   0  0  0  0  0  0  0  0  0  0  0  0
    0.9909    1.8546    0.0385 N   0  0  0  0  0  0  0  0  0  0  0  0
    0.8347    2.7151    1.2135 C   0  0  0  0  0  0  0  0  0  0  0  0
    0.1938    1.9426    2.3687 C   0  0  0  0  0  0  0  0  0  0  0  0
   -1.0881    1.5535    2.0221 F   0  0  0  0  0  0  0  0  0  0  0  0
    0.9418    0.8173    2.6760 F   0  0  0  0  0  0  0  0  0  0  0  0
    0.1289    2.7601    3.4863 F   0  0  0  0  0  0  0  0  0  0  0  0
    2.0219   -0.1578   -1.0000 C   0  0  0  0  0  0  0  0  0  0  0  0
    0.7692   -0.4832   -1.7919 C   0  0  0  0  0  0  0  0  0  0  0  0
   -0.4536   -0.7130   -0.8967 C   0  0  0  0  0  0  0  0  0  0  0  0
   -0.3363   -1.6153    0.1799 C   0  0  0  0  0  0  0  0  0  0  0  0
    0.7198   -2.2905    0.3357 O   0  0  0  0  0  0  0  0  0  0  0  0
   -1.3491   -1.7794    1.0652 N   0  0  0  0  0  0  0  0  0  0  0  0
   -2.5523   -1.1465    0.9442 C   0  0  0  0  0  0  0  0  0  0  0  0
   -3.6590   -1.4452    1.9640 C   0  0  0  0  0  0  0  0  0  0  0  0
   -3.6346   -2.8865    2.4957 C   0  0  0  0  0  0  0  0  0  0  0  0
   -3.5997   -0.4432    3.1243 C   0  0  0  0  0  0  0  0  0  0  0  0
   -2.7343   -0.2162   -0.1186 C   0  0  0  0  0  0  0  0  0  0  0  0
   -3.9166    0.5473   -0.2468 C   0  0  0  0  0  0  0  0  0  0  0  0
   -4.1316    1.3845   -1.3529 C   0  0  0  0  0  0  0  0  0  0  0  0
   -5.3122    2.1332   -1.5072 O   0  0  0  0  0  0  0  0  0  0  0  0
   -6.4033    2.1281   -0.5911 C   0  0  0  0  0  0  0  0  0  0  0  0
   -3.1613    1.4771   -2.3479 C   0  0  0  0  0  0  0  0  0  0  0  0
   -3.4336    2.2903   -3.4631 O   0  0  0  0  0  0  0  0  0  0  0  0
   -2.5537    2.4850   -4.5643 C   0  0  0  0  0  0  0  0  0  0  0  0
   -1.9587    0.7651   -2.2132 C   0  0  0  0  0  0  0  0  0  0  0  0
   -1.7001   -0.0476   -1.0827 C   0  0  0  0  0  0  0  0  0  0  0  0
    3.1520   -0.9804   -1.1436 C   0  0  0  0  0  0  0  0  0  0  0  0
    4.3018   -0.7450   -0.3844 C   0  0  0  0  0  0  0  0  0  0  0  0
    5.4358   -1.5607   -0.5144 C   0  0  0  0  0  0  0  0  0  0  0  0
    7.1358   -3.9871   -0.4656 H   0  0  0  0  0  0  0  0  0  0  0  0
    8.9028   -3.6385   -0.5870 H   0  0  0  0  0  0  0  0  0  0  0  0
    7.7723   -2.8801   -1.7672 H   0  0  0  0  0  0  0  0  0  0  0  0
    7.4506   -0.0449    1.7783 H   0  0  0  0  0  0  0  0  0  0  0  0
    5.4588    1.3993    2.0062 H   0  0  0  0  0  0  0  0  0  0  0  0
    0.3174    1.9841   -0.7505 H   0  0  0  0  0  0  0  0  0  0  0  0
    0.1807    3.5793    0.9564 H   0  0  0  0  0  0  0  0  0  0  0  0
    1.8204    3.1288    1.5220 H   0  0  0  0  0  0  0  0  0  0  0  0
    0.6602    0.3366   -2.5220 H   0  0  0  0  0  0  0  0  0  0  0  0
    0.9189   -1.4093   -2.3922 H   0  0  0  0  0  0  0  0  0  0  0  0
   -1.1727   -2.4256    1.8656 H   0  0  0  0  0  0  0  0  0  0  0  0
   -4.6495   -1.3654    1.4738 H   0  0  0  0  0  0  0  0  0  0  0  0
   -2.8114   -3.0412    3.2235 H   0  0  0  0  0  0  0  0  0  0  0  0
   -4.5891   -3.1112    3.0189 H   0  0  0  0  0  0  0  0  0  0  0  0
   -3.5316   -3.6057    1.6567 H   0  0  0  0  0  0  0  0  0  0  0  0
   -4.4301   -0.6368    3.8405 H   0  0  0  0  0  0  0  0  0  0  0  0
   -2.6321   -0.5303    3.6632 H   0  0  0  0  0  0  0  0  0  0  0  0
   -3.7074    0.5946    2.7455 H   0  0  0  0  0  0  0  0  0  0  0  0
   -4.6769    0.5203    0.5137 H   0  0  0  0  0  0  0  0  0  0  0  0
   -7.2002    2.8014   -0.9730 H   0  0  0  0  0  0  0  0  0  0  0  0
   -6.0731    2.5019    0.4026 H   0  0  0  0  0  0  0  0  0  0  0  0
   -6.8179    1.1013   -0.4975 H   0  0  0  0  0  0  0  0  0  0  0  0
   -2.3332    1.5129   -5.0556 H   0  0  0  0  0  0  0  0  0  0  0  0
   -3.0415    3.1553   -5.3053 H   0  0  0  0  0  0  0  0  0  0  0  0
   -1.6092    2.9615   -4.2172 H   0  0  0  0  0  0  0  0  0  0  0  0
   -1.2612    0.8307   -3.0237 H   0  0  0  0  0  0  0  0  0  0  0  0
    3.1321   -1.8135   -1.8381 H   0  0  0  0  0  0  0  0  0  0  0  0
    5.4196   -2.3821   -1.2182 H   0  0  0  0  0  0  0  0  0  0  0  0
  1  2  1  0
  2  3  1  0
  3  4  2  0
  4  5  1  0
  5  6  2  0
  6  7  1  0
  7  8  2  0
  8  9  1  0
  9 10  1  0
 10 11  1  0
 11 12  1  0
 11 13  1  0
 11 14  1  0
  8 15  1  0
 15 16  1  0
 16 17  1  0
 17 18  1  0
 18 19  2  0
 18 20  1  0
 20 21  1  0
 21 22  1  0
 22 23  1  0
 22 24  1  0
 21 25  2  0
 25 26  1  0
 26 27  2  0
 27 28  1  0
 28 29  1  0
 27 30  1  0
 30 31  1  0
 31 32  1  0
 30 33  2  0
 33 34  1  0
 15 35  2  0
 35 36  1  0
 36 37  2  0
 37  3  1  0
 36  6  1  0
 34 17  2  0
 34 25  1  0
  1 38  1  0
  1 39  1  0
  1 40  1  0
  4 41  1  0
  5 42  1  0
  9 43  1  0
 10 44  1  0
 10 45  1  0
 16 46  1  0
 16 47  1  0
 20 48  1  0
 22 49  1  0
 23 50  1  0
 23 51  1  0
 23 52  1  0
 24 53  1  0
 24 54  1  0
 24 55  1  0
 26 56  1  0
 29 57  1  0
 29 58  1  0
 29 59  1  0
 32 60  1  0
 32 61  1  0
 32 62  1  0
 33 63  1  0
 35 64  1  0
 37 65  1  0
M  END
$$$$

     RDKit          3D

 66 70  0  0  0  0  0  0  0  0999 V2000
   -5.9787    3.0653   -1.4359 C   0  0  0  0  0  0  0  0  0  0  0  0
   -6.3683    1.6186   -1.7108 C   0  0  0  0  0  0  0  0  0  0  0  0
   -5.8018    0.7373   -0.6903 N   0  0  0  0  0  0  0  0  0  0  0  0
   -6.2081    0.6435    0.6632 C   0  0  0  0  0  0  0  0  0  0  0  0
   -7.2475    1.1991    1.1057 O   0  0  0  0  0  0  0  0  0  0  0  0
   -5.2859   -0.1758    1.5023 C   0  0  0  0  0  0  0  0  0  0  0  0
   -4.2054   -0.6869    0.4924 C   0  0  0  0  0  0  0  0  0  0  0  0
   -4.2683   -2.2316    0.3203 C   0  0  0  0  0  0  0  0  0  0  0  0
   -3.3153   -2.9219    1.2945 C   0  0  0  0  0  0  0  0  0  0  0  0
   -1.8577   -2.4664    1.0512 C   0  0  0  0  0  0  0  0  0  0  0  0
   -1.7644   -1.1526    0.3572 N   0  0  0  0  0  0  0  0  0  0  0  0
   -0.3974   -0.5526    0.4082 C   0  0  0  0  0  0  0  0  0  0  0  0
    0.7223   -1.5899    0.1236 C   0  0  0  0  0  0  0  0  0  0  0  0
    2.0996   -0.9209    0.0671 C   0  0  0  0  0  0  0  0  0  0  0  0
    2.1181    0.2181   -0.8603 N   0  0  0  0  0  0  0  0  0  0  0  0
    3.3774    0.8348   -1.2135 C   0  0  0  0  0  0  0  0  0  0  0  0
    3.4573    1.5849   -2.2239 O   0  0  0  0  0  0  0  0  0  0  0  0
    4.6032    0.5691   -0.4386 C   0  0  0  0  0  0  0  0  0  0  0  0
    4.7869    0.9662    0.8927 C   0  0  0  0  0  0  0  0  0  0  0  0
    3.8347    1.7299    1.6560 N   0  0  0  0  0  0  0  0  0  0  0  0
    4.0007    2.1198    3.0294 C   0  0  0  0  0  0  0  0  0  0  0  0
    3.0393    2.9787    3.6436 N   0  0  0  0  0  0  0  0  0  0  0  0
    4.9778    1.7067    3.7074 O   0  0  0  0  0  0  0  0  0  0  0  0
    6.3274    0.4836    1.4120 S   0  0  0  0  0  0  0  0  0  0  0  0
    6.7608   -0.2314   -0.0421 C   0  0  0  0  0  0  0  0  0  0  0  0
    7.9517   -0.8828   -0.3565 C   0  0  0  0  0  0  0  0  0  0  0  0
    8.0908   -1.4294   -1.6415 C   0  0  0  0  0  0  0  0  0  0  0  0
    7.0466   -1.3187   -2.5779 C   0  0  0  0  0  0  0  0  0  0  0  0
    5.8558   -0.6526   -2.2410 C   0  0  0  0  0  0  0  0  0  0  0  0
    5.7233   -0.1056   -0.9569 C   0  0  0  0  0  0  0  0  0  0  0  0
    0.8850    0.5973   -1.5614 C   0  0  0  0  0  0  0  0  0  0  0  0
   -0.3020    0.6479   -0.5886 C   0  0  0  0  0  0  0  0  0  0  0  0
   -2.7801   -0.2321    0.9207 C   0  0  0  0  0  0  0  0  0  0  0  0
   -4.6110   -0.0198   -0.7994 C   0  0  0  0  0  0  0  0  0  0  0  0
   -3.9576   -0.1072   -1.8752 O   0  0  0  0  0  0  0  0  0  0  0  0
   -6.3066    3.7082   -2.2768 H   0  0  0  0  0  0  0  0  0  0  0  0
   -4.8773    3.1461   -1.3295 H   0  0  0  0  0  0  0  0  0  0  0  0
   -6.4578    3.4239   -0.5013 H   0  0  0  0  0  0  0  0  0  0  0  0
   -5.9955    1.3267   -2.7174 H   0  0  0  0  0  0  0  0  0  0  0  0
   -7.4764    1.5189   -1.7152 H   0  0  0  0  0  0  0  0  0  0  0  0
   -5.8521   -1.0014    1.9850 H   0  0  0  0  0  0  0  0  0  0  0  0
   -4.8587    0.4723    2.2965 H   0  0  0  0  0  0  0  0  0  0  0  0
   -5.3004   -2.6170    0.4625 H   0  0  0  0  0  0  0  0  0  0  0  0
   -3.9634   -2.5217   -0.7099 H   0  0  0  0  0  0  0  0  0  0  0  0
   -3.3930   -4.0257    1.1818 H   0  0  0  0  0  0  0  0  0  0  0  0
   -3.6166   -2.6697    2.3342 H   0  0  0  0  0  0  0  0  0  0  0  0
   -1.3772   -3.2390    0.4129 H   0  0  0  0  0  0  0  0  0  0  0  0
   -1.3315   -2.4322    2.0320 H   0  0  0  0  0  0  0  0  0  0  0  0
   -0.2125   -0.1639    1.4380 H   0  0  0  0  0  0  0  0  0  0  0  0
    0.5224   -2.1088   -0.8394 H   0  0  0  0  0  0  0  0  0  0  0  0
    0.7646   -2.3552    0.9267 H   0  0  0  0  0  0  0  0  0  0  0  0
    2.3708   -0.5708    1.0850 H   0  0  0  0  0  0  0  0  0  0  0  0
    2.8463   -1.6778   -0.2565 H   0  0  0  0  0  0  0  0  0  0  0  0
    2.9677    2.0558    1.1725 H   0  0  0  0  0  0  0  0  0  0  0  0
    2.2001    3.3007    3.1131 H   0  0  0  0  0  0  0  0  0  0  0  0
    3.1665    3.2977    4.6303 H   0  0  0  0  0  0  0  0  0  0  0  0
    8.7476   -0.9711    0.3712 H   0  0  0  0  0  0  0  0  0  0  0  0
    9.0024   -1.9483   -1.9080 H   0  0  0  0  0  0  0  0  0  0  0  0
    7.1607   -1.7478   -3.5646 H   0  0  0  0  0  0  0  0  0  0  0  0
    5.0571   -0.5771   -2.9682 H   0  0  0  0  0  0  0  0  0  0  0  0
    0.6810   -0.1429   -2.3643 H   0  0  0  0  0  0  0  0  0  0  0  0
    0.9847    1.5952   -2.0408 H   0  0  0  0  0  0  0  0  0  0  0  0
   -0.2355    1.5893   -0.0025 H   0  0  0  0  0  0  0  0  0  0  0  0
   -1.2199    0.7164   -1.2108 H   0  0  0  0  0  0  0  0  0  0  0  0
   -2.6883   -0.2247    2.0330 H   0  0  0  0  0  0  0  0  0  0  0  0
   -2.6186    0.8217    0.6039 H   0  0  0  0  0  0  0  0  0  0  0  0
  1  2  1  0
  2  3  1  0
  3  4  1  0
  4  5  2  0
  4  6  1  0
  6  7  1  0
  7  8  1  0
  8  9  1  0
  9 10  1  0
 10 11  1  0
 11 12  1  0
 12 13  1  0
 13 14  1  0
 14 15  1  0
 15 16  1  0
 16 17  2  0
 16 18  1  0
 18 19  2  0
 19 20  1  0
 20 21  1  0
 21 22  1  0
 21 23  2  0
 19 24  1  0
 24 25  1  0
 25 26  2  0
 26 27  1  0
 27 28  2  0
 28 29  1  0
 29 30  2  0
 15 31  1  0
 31 32  1  0
 11 33  1  0
  7 34  1  0
 34 35  2  0
 34  3  1  0
 33  7  1  0
 32 12  1  0
 30 18  1  0
 30 25  1  0
  1 36  1  0
  1 37  1  0
  1 38  1  0
  2 39  1  0
  2 40  1  0
  6 41  1  0
  6 42  1  0
  8 43  1  0
  8 44  1  0
  9 45  1  0
  9 46  1  0
 10 47  1  0
 10 48  1  0
 12 49  1  0
 13 50  1  0
 13 51  1  0
 14 52  1  0
 14 53  1  0
 20 54  1  0
 22 55  1  0
 22 56  1  0
 26 57  1  0
 27 58  1  0
 28 59  1  0
 29 60  1  0
 31 61  1  0
 31 62  1  0
 32 63  1  0
 32 64  1  0
 33 65  1  0
 33 66  1  0
M  END
$$$$

     RDKit          3D

 67 71  0  0  0  0  0  0  0  0999 V2000
   -4.7743   -2.7470   -0.7488 C   0  0  0  0  0  0  0  0  0  0  0  0
   -5.7079   -2.0387    0.2269 C   0  0  0  0  0  0  0  0  0  0  0  0
   -5.1478   -0.7498    0.6307 N   0  0  0  0  0  0  0  0  0  0  0  0
   -4.0531   -0.5620    1.5098 C   0  0  0  0  0  0  0  0  0  0  0  0
   -3.6355   -1.4434    2.3084 O   0  0  0  0  0  0  0  0  0  0  0  0
   -3.4527    0.7938    1.3223 C   0  0  0  0  0  0  0  0  0  0  0  0
   -3.5956    1.6635    2.5953 C   0  0  0  0  0  0  0  0  0  0  0  0
   -2.4657    2.6971    2.7347 C   0  0  0  0  0  0  0  0  0  0  0  0
   -1.9546    3.1610    1.3648 C   0  0  0  0  0  0  0  0  0  0  0  0
   -1.4251    2.0409    0.5414 N   0  0  0  0  0  0  0  0  0  0  0  0
    0.0513    2.0921    0.3509 C   0  0  0  0  0  0  0  0  0  0  0  0
    0.8464    1.8987    1.6744 C   0  0  0  0  0  0  0  0  0  0  0  0
    2.3269    1.5861    1.4192 C   0  0  0  0  0  0  0  0  0  0  0  0
    2.4941    0.4607    0.4850 N   0  0  0  0  0  0  0  0  0  0  0  0
    3.7780   -0.1899    0.3905 C   0  0  0  0  0  0  0  0  0  0  0  0
    4.5482   -0.2061    1.3884 O   0  0  0  0  0  0  0  0  0  0  0  0
    4.2261   -0.8336   -0.8601 C   0  0  0  0  0  0  0  0  0  0  0  0
    4.6640   -2.1631   -0.9383 C   0  0  0  0  0  0  0  0  0  0  0  0
    4.6696   -3.0920    0.1607 N   0  0  0  0  0  0  0  0  0  0  0  0
    5.2862   -4.3883    0.1298 C   0  0  0  0  0  0  0  0  0  0  0  0
    5.1291   -5.2743    1.2375 N   0  0  0  0  0  0  0  0  0  0  0  0
    5.9844   -4.7505   -0.8542 O   0  0  0  0  0  0  0  0  0  0  0  0
    5.0588   -2.5306   -2.5453 S   0  0  0  0  0  0  0  0  0  0  0  0
    4.7073   -1.0028   -3.1407 C   0  0  0  0  0  0  0  0  0  0  0  0
    4.8246   -0.5482   -4.4519 C   0  0  0  0  0  0  0  0  0  0  0  0
    4.4960    0.7878   -4.7231 C   0  0  0  0  0  0  0  0  0  0  0  0
    4.0675    1.6381   -3.6867 C   0  0  0  0  0  0  0  0  0  0  0  0
    3.9582    1.1583   -2.3712 C   0  0  0  0  0  0  0  0  0  0  0  0
    4.2711   -0.1825   -2.1081 C   0  0  0  0  0  0  0  0  0  0  0  0
    1.3355   -0.0341   -0.2758 C   0  0  0  0  0  0  0  0  0  0  0  0
    0.5191    1.1512   -0.7941 C   0  0  0  0  0  0  0  0  0  0  0  0
   -1.9851    0.6994    0.8628 C   0  0  0  0  0  0  0  0  0  0  0  0
   -4.2812    1.3300    0.2371 N   0  0  0  0  0  0  0  0  0  0  0  0
   -5.1823    0.4651   -0.1137 C   0  0  0  0  0  0  0  0  0  0  0  0
   -6.1485    0.7282   -1.2235 C   0  0  0  0  0  0  0  0  0  0  0  0
   -3.7900   -2.9345   -0.2696 H   0  0  0  0  0  0  0  0  0  0  0  0
   -5.2171   -3.7200   -1.0491 H   0  0  0  0  0  0  0  0  0  0  0  0
   -4.6241   -2.1262   -1.6570 H   0  0  0  0  0  0  0  0  0  0  0  0
   -5.8570   -2.6758    1.1248 H   0  0  0  0  0  0  0  0  0  0  0  0
   -6.6988   -1.8875   -0.2506 H   0  0  0  0  0  0  0  0  0  0  0  0
   -3.5864    1.0257    3.5068 H   0  0  0  0  0  0  0  0  0  0  0  0
   -4.5759    2.1891    2.5820 H   0  0  0  0  0  0  0  0  0  0  0  0
   -1.6215    2.2503    3.3034 H   0  0  0  0  0  0  0  0  0  0  0  0
   -2.8326    3.5730    3.3121 H   0  0  0  0  0  0  0  0  0  0  0  0
   -1.1983    3.9620    1.5169 H   0  0  0  0  0  0  0  0  0  0  0  0
   -2.7932    3.6373    0.8129 H   0  0  0  0  0  0  0  0  0  0  0  0
    0.3007    3.1179   -0.0067 H   0  0  0  0  0  0  0  0  0  0  0  0
    0.4358    1.0712    2.2831 H   0  0  0  0  0  0  0  0  0  0  0  0
    0.7784    2.8197    2.2924 H   0  0  0  0  0  0  0  0  0  0  0  0
    2.7986    1.3443    2.3965 H   0  0  0  0  0  0  0  0  0  0  0  0
    2.8326    2.4832    1.0018 H   0  0  0  0  0  0  0  0  0  0  0  0
    4.1930   -2.8117    1.0462 H   0  0  0  0  0  0  0  0  0  0  0  0
    5.5793   -6.2164    1.2281 H   0  0  0  0  0  0  0  0  0  0  0  0
    4.5656   -4.9917    2.0693 H   0  0  0  0  0  0  0  0  0  0  0  0
    5.1665   -1.2061   -5.2402 H   0  0  0  0  0  0  0  0  0  0  0  0
    4.5797    1.1687   -5.7326 H   0  0  0  0  0  0  0  0  0  0  0  0
    3.8268    2.6704   -3.9032 H   0  0  0  0  0  0  0  0  0  0  0  0
    3.6478    1.8272   -1.5797 H   0  0  0  0  0  0  0  0  0  0  0  0
    0.7070   -0.6711    0.3823 H   0  0  0  0  0  0  0  0  0  0  0  0
    1.6472   -0.6552   -1.1407 H   0  0  0  0  0  0  0  0  0  0  0  0
   -0.3325    0.7897   -1.4069 H   0  0  0  0  0  0  0  0  0  0  0  0
    1.1643    1.7260   -1.4943 H   0  0  0  0  0  0  0  0  0  0  0  0
   -1.9434    0.0531   -0.0393 H   0  0  0  0  0  0  0  0  0  0  0  0
   -1.4047    0.1917    1.6577 H   0  0  0  0  0  0  0  0  0  0  0  0
   -6.0629    1.7790   -1.5730 H   0  0  0  0  0  0  0  0  0  0  0  0
   -7.1842    0.5537   -0.8649 H   0  0  0  0  0  0  0  0  0  0  0  0
   -5.9337    0.0479   -2.0731 H   0  0  0  0  0  0  0  0  0  0  0  0
  1  2  1  0
  2  3  1  0
  3  4  1  0
  4  5  2  0
  4  6  1  0
  6  7  1  0
  7  8  1  0
  8  9  1  0
  9 10  1  0
 10 11  1  0
 11 12  1  0
 12 13  1  0
 13 14  1  0
 14 15  1  0
 15 16  2  0
 15 17  1  0
 17 18  2  0
 18 19  1  0
 19 20  1  0
 20 21  1  0
 20 22  2  0
 18 23  1  0
 23 24  1  0
 24 25  2  0
 25 26  1  0
 26 27  2  0
 27 28  1  0
 28 29  2  0
 14 30  1  0
 30 31  1  0
 10 32  1  0
  6 33  1  0
 33 34  2  0
 34 35  1  0
 34  3  1  0
 32  6  1  0
 31 11  1  0
 29 17  1  0
 29 24  1  0
  1 36  1  0
  1 37  1  0
  1 38  1  0
  2 39  1  0
  2 40  1  0
  7 41  1  0
  7 42  1  0
  8 43  1  0
  8 44  1  0
  9 45  1  0
  9 46  1  0
 11 47  1  0
 12 48  1  0
 12 49  1  0
 13 50  1  0
 13 51  1  0
 19 52  1  0
 21 53  1  0
 21 54  1  0
 25 55  1  0
 26 56  1  0
 27 57  1  0
 28 58  1  0
 30 59  1  0
 30 60  1  0
 31 61  1  0
 31 62  1  0
 32 63  1  0
 32 64  1  0
 35 65  1  0
 35 66  1  0
 35 67  1  0
M  END
$$$$

     RDKit          3D

 72 75  0  0  0  0  0  0  0  0999 V2000
   -2.0745   -2.0990   -3.3159 C   0  0  0  0  0  0  0  0  0  0  0  0
   -2.2714   -0.6485   -3.7466 C   0  0  0  0  0  0  0  0  0  0  0  0
   -3.2258    0.1213   -2.8209 C   0  0  0  0  0  0  0  0  0  0  0  0
   -2.5673    0.5005   -1.5042 C   0  0  0  0  0  0  0  0  0  0  0  0
   -1.8190    1.6361   -1.4917 N   0  0  0  0  0  0  0  0  0  0  0  0
   -1.2091    2.1055   -0.3755 C   0  0  0  0  0  0  0  0  0  0  0  0
   -0.5477    3.1773   -0.4517 O   0  0  0  0  0  0  0  0  0  0  0  0
   -1.3118    1.4168    0.8510 C   0  0  0  0  0  0  0  0  0  0  0  0
   -0.5088    1.9576    2.0387 C   0  0  0  0  0  0  0  0  0  0  0  0
    0.9822    1.9100    1.7632 C   0  0  0  0  0  0  0  0  0  0  0  0
    1.6899    3.1112    1.5825 C   0  0  0  0  0  0  0  0  0  0  0  0
    3.0396    3.0909    1.2145 C   0  0  0  0  0  0  0  0  0  0  0  0
    3.7517    4.2796    0.9921 C   0  0  0  0  0  0  0  0  0  0  0  0
    5.1047    4.2315    0.5995 C   0  0  0  0  0  0  0  0  0  0  0  0
    5.8574    5.3890    0.3527 O   0  0  0  0  0  0  0  0  0  0  0  0
    5.3478    6.7153    0.4480 C   0  0  0  0  0  0  0  0  0  0  0  0
    5.7306    2.9883    0.4437 C   0  0  0  0  0  0  0  0  0  0  0  0
    5.0247    1.8024    0.6652 C   0  0  0  0  0  0  0  0  0  0  0  0
    3.6805    1.8489    1.0460 C   0  0  0  0  0  0  0  0  0  0  0  0
    2.9905    0.6981    1.2503 N   0  0  0  0  0  0  0  0  0  0  0  0
    1.6772    0.6874    1.6105 C   0  0  0  0  0  0  0  0  0  0  0  0
    1.0214   -0.5712    1.8232 N   0  0  0  0  0  0  0  0  0  0  0  0
    1.4156   -1.7857    1.1136 C   0  0  0  0  0  0  0  0  0  0  0  0
    1.1444   -1.6382   -0.3865 C   0  0  0  0  0  0  0  0  0  0  0  0
    1.4753   -2.8698   -1.1014 N   0  0  0  0  0  0  0  0  0  0  0  0
    1.4325   -2.9389   -2.5318 C   0  0  0  0  0  0  0  0  0  0  0  0
    1.7059   -4.2337   -3.2242 C   0  0  0  0  0  0  0  0  0  0  0  0
    1.1846   -1.9071   -3.2135 O   0  0  0  0  0  0  0  0  0  0  0  0
   -2.1348    0.2504    0.8999 C   0  0  0  0  0  0  0  0  0  0  0  0
   -2.3905   -0.4462    2.1047 C   0  0  0  0  0  0  0  0  0  0  0  0
   -3.1300   -1.6400    2.1215 C   0  0  0  0  0  0  0  0  0  0  0  0
   -3.3612   -2.3617    3.3046 O   0  0  0  0  0  0  0  0  0  0  0  0
   -2.8884   -1.9840    4.5931 C   0  0  0  0  0  0  0  0  0  0  0  0
   -3.6566   -2.1435    0.9342 C   0  0  0  0  0  0  0  0  0  0  0  0
   -4.3607   -3.3573    0.9831 O   0  0  0  0  0  0  0  0  0  0  0  0
   -4.9494   -3.9999   -0.1437 C   0  0  0  0  0  0  0  0  0  0  0  0
   -3.4770   -1.4334   -0.2611 C   0  0  0  0  0  0  0  0  0  0  0  0
   -2.7371   -0.2323   -0.2992 C   0  0  0  0  0  0  0  0  0  0  0  0
   -3.0521   -2.6271   -3.2770 H   0  0  0  0  0  0  0  0  0  0  0  0
   -1.4275   -2.6179   -4.0548 H   0  0  0  0  0  0  0  0  0  0  0  0
   -1.5820   -2.1483   -2.3218 H   0  0  0  0  0  0  0  0  0  0  0  0
   -2.6964   -0.6461   -4.7738 H   0  0  0  0  0  0  0  0  0  0  0  0
   -1.2841   -0.1387   -3.7906 H   0  0  0  0  0  0  0  0  0  0  0  0
   -4.1879   -0.4135   -2.6953 H   0  0  0  0  0  0  0  0  0  0  0  0
   -3.5158    1.0605   -3.3409 H   0  0  0  0  0  0  0  0  0  0  0  0
   -1.7043    2.1810   -2.3773 H   0  0  0  0  0  0  0  0  0  0  0  0
   -0.6872    1.4580    3.0030 H   0  0  0  0  0  0  0  0  0  0  0  0
   -0.8351    3.0067    2.2130 H   0  0  0  0  0  0  0  0  0  0  0  0
    1.1808    4.0619    1.6939 H   0  0  0  0  0  0  0  0  0  0  0  0
    3.2507    5.2311    1.1179 H   0  0  0  0  0  0  0  0  0  0  0  0
    5.0035    6.9196    1.4840 H   0  0  0  0  0  0  0  0  0  0  0  0
    6.1546    7.4327    0.1922 H   0  0  0  0  0  0  0  0  0  0  0  0
    4.5101    6.8545   -0.2675 H   0  0  0  0  0  0  0  0  0  0  0  0
    6.7703    2.9425    0.1450 H   0  0  0  0  0  0  0  0  0  0  0  0
    5.5239    0.8494    0.5356 H   0  0  0  0  0  0  0  0  0  0  0  0
    0.2757   -0.6474    2.5465 H   0  0  0  0  0  0  0  0  0  0  0  0
    2.4937   -1.9924    1.2898 H   0  0  0  0  0  0  0  0  0  0  0  0
    0.8288   -2.6434    1.5087 H   0  0  0  0  0  0  0  0  0  0  0  0
    0.0710   -1.3975   -0.5459 H   0  0  0  0  0  0  0  0  0  0  0  0
    1.7599   -0.8058   -0.7906 H   0  0  0  0  0  0  0  0  0  0  0  0
    1.7603   -3.7245   -0.5703 H   0  0  0  0  0  0  0  0  0  0  0  0
    1.0210   -5.0159   -2.8339 H   0  0  0  0  0  0  0  0  0  0  0  0
    1.5484   -4.1304   -4.3191 H   0  0  0  0  0  0  0  0  0  0  0  0
    2.7570   -4.5408   -3.0375 H   0  0  0  0  0  0  0  0  0  0  0  0
   -2.0363   -0.0799    3.0470 H   0  0  0  0  0  0  0  0  0  0  0  0
   -3.3201   -1.0041    4.8846 H   0  0  0  0  0  0  0  0  0  0  0  0
   -1.7797   -1.9295    4.5927 H   0  0  0  0  0  0  0  0  0  0  0  0
   -3.2056   -2.7471    5.3332 H   0  0  0  0  0  0  0  0  0  0  0  0
   -4.1688   -4.2486   -0.8929 H   0  0  0  0  0  0  0  0  0  0  0  0
   -5.4345   -4.9402    0.1892 H   0  0  0  0  0  0  0  0  0  0  0  0
   -5.7211   -3.3430   -0.5991 H   0  0  0  0  0  0  0  0  0  0  0  0
   -3.9064   -1.8440   -1.1562 H   0  0  0  0  0  0  0  0  0  0  0  0
  1  2  1  0
  2  3  1  0
  3  4  1  0
  4  5  1  0
  5  6  1  0
  6  7  2  0
  6  8  1  0
  8  9  1  0
  9 10  1  0
 10 11  2  0
 11 12  1  0
 12 13  2  0
 13 14  1  0
 14 15  1  0
 15 16  1  0
 14 17  2  0
 17 18  1  0
 18 19  2  0
 19 20  1  0
 20 21  2  0
 21 22  1  0
 22 23  1  0
 23 24  1  0
 24 25  1  0
 25 26  1  0
 26 27  1  0
 26 28  2  0
  8 29  2  0
 29 30  1  0
 30 31  2  0
 31 32  1  0
 32 33  1  0
 31 34  1  0
 34 35  1  0
 35 36  1  0
 34 37  2  0
 37 38  1  0
 38  4  2  0
 21 10  1  0
 38 29  1  0
 19 12  1  0
  1 39  1  0
  1 40  1  0
  1 41  1  0
  2 42  1  0
  2 43  1  0
  3 44  1  0
  3 45  1  0
  5 46  1  0
  9 47  1  0
  9 48  1  0
 11 49  1  0
 13 50  1  0
 16 51  1  0
 16 52  1  0
 16 53  1  0
 17 54  1  0
 18 55  1  0
 22 56  1  0
 23 57  1  0
 23 58  1  0
 24 59  1  0
 24 60  1  0
 25 61  1  0
 27 62  1  0
 27 63  1  0
 27 64  1  0
 30 65  1  0
 33 66  1  0
 33 67  1  0
 33 68  1  0
 36 69  1  0
 36 70  1  0
 36 71  1  0
 37 72  1  0
M  END
$$$$

     RDKit          3D

 78 83  0  0  0  0  0  0  0  0999 V2000
    1.1528   -2.7624   -1.3392 C   0  0  0  0  0  0  0  0  0  0  0  0
    0.7867   -1.7162   -0.3838 N   0  0  0  0  0  0  0  0  0  0  0  0
    1.7812   -1.1227    0.4575 C   0  0  0  0  0  0  0  0  0  0  0  0
    2.5703   -1.9359    1.2849 C   0  0  0  0  0  0  0  0  0  0  0  0
    3.5639   -1.3730    2.0895 C   0  0  0  0  0  0  0  0  0  0  0  0
    3.7979    0.0072    2.0588 C   0  0  0  0  0  0  0  0  0  0  0  0
    5.0863    0.7142    3.0410 S   0  0  0  0  0  6  0  0  0  0  0  0
    5.2644   -0.1105    4.2849 O   0  0  0  0  0  0  0  0  0  0  0  0
    4.6792    2.1011    3.4571 O   0  0  0  0  0  0  0  0  0  0  0  0
    6.6139    0.8008    2.1953 N   0  0  0  0  0  0  0  0  0  0  0  0
    6.5383    1.6686    1.0252 C   0  0  0  0  0  0  0  0  0  0  0  0
    7.6291    1.1988    0.0817 C   0  0  0  0  0  0  0  0  0  0  0  0
    7.8043   -0.2758    0.3969 C   0  0  0  0  0  0  0  0  0  0  0  0
    7.0610   -0.5068    1.7097 C   0  0  0  0  0  0  0  0  0  0  0  0
    2.9994    0.8216    1.2446 C   0  0  0  0  0  0  0  0  0  0  0  0
    1.9775    0.2718    0.4588 C   0  0  0  0  0  0  0  0  0  0  0  0
    1.2696    1.1432   -0.4351 N   0  0  0  0  0  0  0  0  0  0  0  0
    0.0411    1.0615   -0.8606 C   0  0  0  0  0  0  0  0  0  0  0  0
   -0.4085    2.0868   -1.8144 C   0  0  0  0  0  0  0  0  0  0  0  0
   -0.3647    1.8294   -3.1914 C   0  0  0  0  0  0  0  0  0  0  0  0
   -0.7580    2.8124   -4.1006 C   0  0  0  0  0  0  0  0  0  0  0  0
   -1.2128    4.0672   -3.6501 C   0  0  0  0  0  0  0  0  0  0  0  0
   -1.6173    5.1006   -4.6373 C   0  0  0  0  0  0  0  0  0  0  0  0
   -1.8676    4.7641   -5.8236 O   0  0  0  0  0  0  0  0  0  0  0  0
   -1.7172    6.4506   -4.3004 O   0  0  0  0  0  0  0  0  0  0  0  0
   -1.2779    4.3070   -2.2632 C   0  0  0  0  0  0  0  0  0  0  0  0
   -0.8628    3.3297   -1.3564 C   0  0  0  0  0  0  0  0  0  0  0  0
   -0.9335    0.0413   -0.3792 C   0  0  0  0  0  0  0  0  0  0  0  0
   -2.2602    0.4194   -0.1220 C   0  0  0  0  0  0  0  0  0  0  0  0
   -3.2407   -0.5110    0.2855 C   0  0  0  0  0  0  0  0  0  0  0  0
   -2.8898   -1.8887    0.3325 C   0  0  0  0  0  0  0  0  0  0  0  0
   -1.5428   -2.2473    0.1168 C   0  0  0  0  0  0  0  0  0  0  0  0
   -0.5745   -1.3021   -0.2292 C   0  0  0  0  0  0  0  0  0  0  0  0
   -3.8931   -2.9773    0.7389 C   0  0  0  0  0  0  0  0  0  0  0  0
   -3.6083   -3.3978    2.2014 C   0  0  0  0  0  0  0  0  0  0  0  0
   -3.7639   -4.2287   -0.1671 C   0  0  0  0  0  0  0  0  0  0  0  0
   -5.3460   -2.4679    0.5930 C   0  0  0  0  0  0  0  0  0  0  0  0
   -5.5440   -1.1014    1.2392 C   0  0  0  0  0  0  0  0  0  0  0  0
   -4.6618   -0.0068    0.5850 C   0  0  0  0  0  0  0  0  0  0  0  0
   -4.6138    1.1842    1.5736 C   0  0  0  0  0  0  0  0  0  0  0  0
   -5.3173    0.4696   -0.7323 C   0  0  0  0  0  0  0  0  0  0  0  0
    0.2797   -3.0534   -1.9648 H   0  0  0  0  0  0  0  0  0  0  0  0
    1.5150   -3.6630   -0.8018 H   0  0  0  0  0  0  0  0  0  0  0  0
    1.9554   -2.3869   -2.0101 H   0  0  0  0  0  0  0  0  0  0  0  0
    2.4125   -3.0051    1.3129 H   0  0  0  0  0  0  0  0  0  0  0  0
    4.1616   -2.0186    2.7209 H   0  0  0  0  0  0  0  0  0  0  0  0
    6.6977    2.7261    1.3174 H   0  0  0  0  0  0  0  0  0  0  0  0
    5.5587    1.5773    0.5107 H   0  0  0  0  0  0  0  0  0  0  0  0
    7.3445    1.3585   -0.9809 H   0  0  0  0  0  0  0  0  0  0  0  0
    8.5727    1.7476    0.2954 H   0  0  0  0  0  0  0  0  0  0  0  0
    8.8836   -0.5272    0.5001 H   0  0  0  0  0  0  0  0  0  0  0  0
    7.3620   -0.9027   -0.4102 H   0  0  0  0  0  0  0  0  0  0  0  0
    6.2130   -1.1979    1.5240 H   0  0  0  0  0  0  0  0  0  0  0  0
    7.7320   -0.9711    2.4636 H   0  0  0  0  0  0  0  0  0  0  0  0
    3.1780    1.8893    1.2126 H   0  0  0  0  0  0  0  0  0  0  0  0
   -0.0130    0.8713   -3.5584 H   0  0  0  0  0  0  0  0  0  0  0  0
   -0.6970    2.5950   -5.1601 H   0  0  0  0  0  0  0  0  0  0  0  0
   -1.4811    6.8047   -3.3813 H   0  0  0  0  0  0  0  0  0  0  0  0
   -1.6648    5.2352   -1.8699 H   0  0  0  0  0  0  0  0  0  0  0  0
   -0.9094    3.5382   -0.2938 H   0  0  0  0  0  0  0  0  0  0  0  0
   -2.5264    1.4594   -0.2262 H   0  0  0  0  0  0  0  0  0  0  0  0
   -1.2192   -3.2728    0.2513 H   0  0  0  0  0  0  0  0  0  0  0  0
   -3.5953   -2.5177    2.8777 H   0  0  0  0  0  0  0  0  0  0  0  0
   -2.6127   -3.8821    2.2787 H   0  0  0  0  0  0  0  0  0  0  0  0
   -4.3723   -4.1182    2.5679 H   0  0  0  0  0  0  0  0  0  0  0  0
   -2.8251   -4.7884    0.0238 H   0  0  0  0  0  0  0  0  0  0  0  0
   -4.5996   -4.9372    0.0223 H   0  0  0  0  0  0  0  0  0  0  0  0
   -3.7886   -3.9385   -1.2411 H   0  0  0  0  0  0  0  0  0  0  0  0
   -6.0549   -3.1875    1.0586 H   0  0  0  0  0  0  0  0  0  0  0  0
   -5.6213   -2.4010   -0.4832 H   0  0  0  0  0  0  0  0  0  0  0  0
   -5.3321   -1.1830    2.3289 H   0  0  0  0  0  0  0  0  0  0  0  0
   -6.6177   -0.8294    1.1614 H   0  0  0  0  0  0  0  0  0  0  0  0
   -4.1820    2.0990    1.1147 H   0  0  0  0  0  0  0  0  0  0  0  0
   -5.6402    1.4483    1.9147 H   0  0  0  0  0  0  0  0  0  0  0  0
   -4.0097    0.9183    2.4677 H   0  0  0  0  0  0  0  0  0  0  0  0
   -6.3584    0.8107   -0.5552 H   0  0  0  0  0  0  0  0  0  0  0  0
   -4.7567    1.3280   -1.1672 H   0  0  0  0  0  0  0  0  0  0  0  0
   -5.3295   -0.3435   -1.4871 H   0  0  0  0  0  0  0  0  0  0  0  0
  1  2  1  0
  2  3  1  0
  3  4  2  0
  4  5  1  0
  5  6  2  0
  6  7  1  0
  7  8  2  0
  7  9  2  0
  7 10  1  0
 10 11  1  0
 11 12  1  0
 12 13  1  0
 13 14  1  0
  6 15  1  0
 15 16  2  0
 16 17  1  0
 17 18  2  0
 18 19  1  0
 19 20  2  0
 20 21  1  0
 21 22  2  0
 22 23  1  0
 23 24  2  0
 23 25  1  0
 22 26  1  0
 26 27  2  0
 18 28  1  0
 28 29  2  0
 29 30  1  0
 30 31  2  0
 31 32  1  0
 32 33  2  0
 31 34  1  0
 34 35  1  0
 34 36  1  0
 34 37  1  0
 37 38  1  0
 38 39  1  0
 39 40  1  0
 39 41  1  0
 33  2  1  0
 16  3  1  0
 27 19  1  0
 33 28  1  0
 14 10  1  0
 39 30  1  0
  1 42  1  0
  1 43  1  0
  1 44  1  0
  4 45  1  0
  5 46  1  0
 11 47  1  0
 11 48  1  0
 12 49  1  0
 12 50  1  0
 13 51  1  0
 13 52  1  0
 14 53  1  0
 14 54  1  0
 15 55  1  0
 20 56  1  0
 21 57  1  0
 25 58  1  0
 26 59  1  0
 27 60  1  0
 29 61  1  0
 32 62  1  0
 35 63  1  0
 35 64  1  0
 35 65  1  0
 36 66  1  0
 36 67  1  0
 36 68  1  0
 37 69  1  0
 37 70  1  0
 38 71  1  0
 38 72  1  0
 40 73  1  0
 40 74  1  0
 40 75  1  0
 41 76  1  0
 41 77  1  0
 41 78  1  0
M  END
$$$$

     RDKit          3D

 72 76  0  0  0  0  0  0  0  0999 V2000
    8.3912    2.1116   -3.1520 C   0  0  0  0  0  0  0  0  0  0  0  0
    8.2041    1.2092   -1.9350 C   0  0  0  0  0  0  0  0  0  0  0  0
    6.8053    1.1888   -1.5059 N   0  0  0  0  0  0  0  0  0  0  0  0
    6.3865    0.4541   -0.3482 C   0  0  0  0  0  0  0  0  0  0  0  0
    7.2255   -0.2398    0.2906 O   0  0  0  0  0  0  0  0  0  0  0  0
    5.0218    0.5395    0.0918 N   0  0  0  0  0  0  0  0  0  0  0  0
    4.4514   -0.2508    1.1552 C   0  0  0  0  0  0  0  0  0  0  0  0
    5.1405   -1.6392    1.8420 S   0  0  0  0  0  0  0  0  0  0  0  0
    3.8745   -1.9169    2.9091 C   0  0  0  0  0  0  0  0  0  0  0  0
    3.7555   -2.9383    3.8498 C   0  0  0  0  0  0  0  0  0  0  0  0
    2.6092   -2.9676    4.6562 C   0  0  0  0  0  0  0  0  0  0  0  0
    1.6145   -1.9809    4.5145 C   0  0  0  0  0  0  0  0  0  0  0  0
    1.7530   -0.9628    3.5572 C   0  0  0  0  0  0  0  0  0  0  0  0
    2.8981   -0.9408    2.7496 C   0  0  0  0  0  0  0  0  0  0  0  0
    3.2088   -0.0025    1.7468 C   0  0  0  0  0  0  0  0  0  0  0  0
    2.3440    1.1309    1.3639 C   0  0  0  0  0  0  0  0  0  0  0  0
    2.7661    2.2993    1.5894 O   0  0  0  0  0  0  0  0  0  0  0  0
    1.0730    0.9406    0.6974 N   0  0  0  0  0  0  0  0  0  0  0  0
    0.5277   -0.3999    0.4133 C   0  0  0  0  0  0  0  0  0  0  0  0
    0.0440   -0.4583   -1.0348 C   0  0  0  0  0  0  0  0  0  0  0  0
   -1.0065    0.6493   -1.3536 C   0  0  0  0  0  0  0  0  0  0  0  0
   -2.3739    0.1284   -1.6146 N   0  0  0  0  0  0  0  0  0  0  0  0
   -2.5049   -0.4946   -2.9486 C   0  0  0  0  0  0  0  0  0  0  0  0
   -3.9876   -0.6865   -3.2882 C   0  0  0  0  0  0  0  0  0  0  0  0
   -4.7001   -1.5116   -2.2041 C   0  0  0  0  0  0  0  0  0  0  0  0
   -4.4368   -0.9430   -0.7877 C   0  0  0  0  0  0  0  0  0  0  0  0
   -2.9179   -0.7721   -0.5728 C   0  0  0  0  0  0  0  0  0  0  0  0
   -5.2003    0.3879   -0.5197 C   0  0  0  0  0  0  0  0  0  0  0  0
   -5.9341    0.2079    0.8429 C   0  0  0  0  0  0  0  0  0  0  0  0
   -5.2439    1.0099    1.9555 C   0  0  0  0  0  0  0  0  0  0  0  0
   -7.4153    0.5960    0.7468 C   0  0  0  0  0  0  0  0  0  0  0  0
   -5.8304   -1.1740    1.1436 O   0  0  0  0  0  0  0  0  0  0  0  0
   -5.0077   -1.8351    0.2571 C   0  0  0  0  0  0  0  0  0  0  0  0
   -4.7475   -3.0652    0.3619 O   0  0  0  0  0  0  0  0  0  0  0  0
   -1.0534    1.7788   -0.2942 C   0  0  0  0  0  0  0  0  0  0  0  0
    0.3455    2.1319    0.2226 C   0  0  0  0  0  0  0  0  0  0  0  0
    7.8167    1.7104   -4.0135 H   0  0  0  0  0  0  0  0  0  0  0  0
    9.4661    2.1560   -3.4265 H   0  0  0  0  0  0  0  0  0  0  0  0
    8.0402    3.1406   -2.9244 H   0  0  0  0  0  0  0  0  0  0  0  0
    8.8396    1.5848   -1.1025 H   0  0  0  0  0  0  0  0  0  0  0  0
    8.5265    0.1774   -2.1914 H   0  0  0  0  0  0  0  0  0  0  0  0
    6.0911    1.7409   -2.0341 H   0  0  0  0  0  0  0  0  0  0  0  0
    4.4203    1.2567   -0.3696 H   0  0  0  0  0  0  0  0  0  0  0  0
    4.5259   -3.6923    3.9591 H   0  0  0  0  0  0  0  0  0  0  0  0
    2.4939   -3.7501    5.3963 H   0  0  0  0  0  0  0  0  0  0  0  0
    0.7402   -2.0065    5.1497 H   0  0  0  0  0  0  0  0  0  0  0  0
    0.9864   -0.2052    3.4564 H   0  0  0  0  0  0  0  0  0  0  0  0
    1.2902   -1.1913    0.5477 H   0  0  0  0  0  0  0  0  0  0  0  0
   -0.3154   -0.6113    1.1057 H   0  0  0  0  0  0  0  0  0  0  0  0
   -0.3295   -1.4762   -1.2619 H   0  0  0  0  0  0  0  0  0  0  0  0
    0.9297   -0.3077   -1.6889 H   0  0  0  0  0  0  0  0  0  0  0  0
   -0.6515    1.1581   -2.2798 H   0  0  0  0  0  0  0  0  0  0  0  0
   -2.0613    0.1566   -3.7328 H   0  0  0  0  0  0  0  0  0  0  0  0
   -1.9856   -1.4809   -2.9815 H   0  0  0  0  0  0  0  0  0  0  0  0
   -4.4741    0.3092   -3.3866 H   0  0  0  0  0  0  0  0  0  0  0  0
   -4.0829   -1.2073   -4.2655 H   0  0  0  0  0  0  0  0  0  0  0  0
   -4.3228   -2.5581   -2.2550 H   0  0  0  0  0  0  0  0  0  0  0  0
   -5.7900   -1.5452   -2.4174 H   0  0  0  0  0  0  0  0  0  0  0  0
   -2.4308   -1.7721   -0.6082 H   0  0  0  0  0  0  0  0  0  0  0  0
   -2.7396   -0.3700    0.4442 H   0  0  0  0  0  0  0  0  0  0  0  0
   -5.9389    0.5774   -1.3301 H   0  0  0  0  0  0  0  0  0  0  0  0
   -4.5213    1.2719   -0.5084 H   0  0  0  0  0  0  0  0  0  0  0  0
   -4.1849    0.6968    2.0549 H   0  0  0  0  0  0  0  0  0  0  0  0
   -5.2828    2.0996    1.7360 H   0  0  0  0  0  0  0  0  0  0  0  0
   -5.7435    0.8264    2.9308 H   0  0  0  0  0  0  0  0  0  0  0  0
   -7.9294    0.4157    1.7169 H   0  0  0  0  0  0  0  0  0  0  0  0
   -7.9266   -0.0108   -0.0290 H   0  0  0  0  0  0  0  0  0  0  0  0
   -7.5159    1.6707    0.4836 H   0  0  0  0  0  0  0  0  0  0  0  0
   -1.5174    2.6821   -0.7427 H   0  0  0  0  0  0  0  0  0  0  0  0
   -1.6700    1.4975    0.5807 H   0  0  0  0  0  0  0  0  0  0  0  0
    0.9296    2.6106   -0.5940 H   0  0  0  0  0  0  0  0  0  0  0  0
    0.2376    2.8614    1.0551 H   0  0  0  0  0  0  0  0  0  0  0  0
  1  2  1  0
  2  3  1  0
  3  4  1  0
  4  5  2  0
  4  6  1  0
  6  7  1  0
  7  8  1  0
  8  9  1  0
  9 10  2  0
 10 11  1  0
 11 12  2  0
 12 13  1  0
 13 14  2  0
 14 15  1  0
 15 16  1  0
 16 17  2  0
 16 18  1  0
 18 19  1  0
 19 20  1  0
 20 21  1  0
 21 22  1  0
 22 23  1  0
 23 24  1  0
 24 25  1  0
 25 26  1  0
 26 27  1  0
 26 28  1  0
 28 29  1  0
 29 30  1  0
 29 31  1  0
 29 32  1  0
 32 33  1  0
 33 34  2  0
 21 35  1  0
 35 36  1  0
 15  7  2  0
 36 18  1  0
 14  9  1  0
 27 22  1  0
 33 26  1  0
  1 37  1  0
  1 38  1  0
  1 39  1  0
  2 40  1  0
  2 41  1  0
  3 42  1  0
  6 43  1  0
 10 44  1  0
 11 45  1  0
 12 46  1  0
 13 47  1  0
 19 48  1  0
 19 49  1  0
 20 50  1  0
 20 51  1  0
 21 52  1  0
 23 53  1  0
 23 54  1  0
 24 55  1  0
 24 56  1  0
 25 57  1  0
 25 58  1  0
 27 59  1  0
 27 60  1  0
 28 61  1  0
 28 62  1  0
 30 63  1  0
 30 64  1  0
 30 65  1  0
 31 66  1  0
 31 67  1  0
 31 68  1  0
 35 69  1  0
 35 70  1  0
 36 71  1  0
 36 72  1  0
M  END
$$$$

     RDKit          3D

 75 79  0  0  0  0  0  0  0  0999 V2000
    7.2316    1.1532    4.9543 C   0  0  0  0  0  0  0  0  0  0  0  0
    6.0102    1.9944    4.5933 C   0  0  0  0  0  0  0  0  0  0  0  0
    5.1547    1.2788    3.6493 N   0  0  0  0  0  0  0  0  0  0  0  0
    5.5170    1.0763    2.2751 C   0  0  0  0  0  0  0  0  0  0  0  0
    6.5779    1.5874    1.8252 O   0  0  0  0  0  0  0  0  0  0  0  0
    4.6677    0.2867    1.4274 N   0  0  0  0  0  0  0  0  0  0  0  0
    4.9254   -0.0021    0.0428 C   0  0  0  0  0  0  0  0  0  0  0  0
    6.1331    0.7090   -0.9171 S   0  0  0  0  0  0  0  0  0  0  0  0
    5.6822   -0.0969   -2.3137 C   0  0  0  0  0  0  0  0  0  0  0  0
    6.2528    0.0167   -3.5382 N   0  0  0  0  0  0  0  0  0  0  0  0
    5.7652   -0.7128   -4.5845 C   0  0  0  0  0  0  0  0  0  0  0  0
    6.3767   -0.5630   -5.9403 C   0  0  0  0  0  0  0  0  0  0  0  0
    4.6595   -1.5710   -4.3929 C   0  0  0  0  0  0  0  0  0  0  0  0
    4.0712   -1.6797   -3.1223 C   0  0  0  0  0  0  0  0  0  0  0  0
    4.5981   -0.9199   -2.0745 C   0  0  0  0  0  0  0  0  0  0  0  0
    4.1545   -0.8684   -0.7431 C   0  0  0  0  0  0  0  0  0  0  0  0
    3.0112   -1.6377   -0.2237 C   0  0  0  0  0  0  0  0  0  0  0  0
    3.2486   -2.5696    0.5959 O   0  0  0  0  0  0  0  0  0  0  0  0
    1.6499   -1.3392   -0.6180 N   0  0  0  0  0  0  0  0  0  0  0  0
    1.3252   -0.2387   -1.5390 C   0  0  0  0  0  0  0  0  0  0  0  0
    0.1461    0.5702   -0.9958 C   0  0  0  0  0  0  0  0  0  0  0  0
   -1.0776   -0.3233   -0.6900 C   0  0  0  0  0  0  0  0  0  0  0  0
   -2.1837    0.5452   -0.1796 N   0  0  0  0  0  0  0  0  0  0  0  0
   -2.9477    1.1316   -1.3055 C   0  0  0  0  0  0  0  0  0  0  0  0
   -3.8107    2.3123   -0.8309 C   0  0  0  0  0  0  0  0  0  0  0  0
   -4.1277    2.2435    0.6695 C   0  0  0  0  0  0  0  0  0  0  0  0
   -4.3161    0.7971    1.1603 C   0  0  0  0  0  0  0  0  0  0  0  0
   -3.1273   -0.1227    0.7544 C   0  0  0  0  0  0  0  0  0  0  0  0
   -4.4642    0.8056    2.5846 O   0  0  0  0  0  0  0  0  0  0  0  0
   -5.7135    0.3161    2.9401 C   0  0  0  0  0  0  0  0  0  0  0  0
   -6.1087    0.2292    4.1316 O   0  0  0  0  0  0  0  0  0  0  0  0
   -6.4881   -0.0726    1.8205 N   0  0  0  0  0  0  0  0  0  0  0  0
   -7.8657   -0.5746    1.8201 C   0  0  0  0  0  0  0  0  0  0  0  0
   -7.9310   -1.9625    1.1794 C   0  0  0  0  0  0  0  0  0  0  0  0
   -8.7943    0.4138    1.1103 C   0  0  0  0  0  0  0  0  0  0  0  0
   -5.6446    0.2288    0.7146 C   0  0  0  0  0  0  0  0  0  0  0  0
   -5.9759    0.0287   -0.4856 O   0  0  0  0  0  0  0  0  0  0  0  0
   -0.6326   -1.4347    0.2996 C   0  0  0  0  0  0  0  0  0  0  0  0
    0.5507   -2.2390   -0.2503 C   0  0  0  0  0  0  0  0  0  0  0  0
    7.8594    0.9702    4.0575 H   0  0  0  0  0  0  0  0  0  0  0  0
    7.8431    1.6941    5.7074 H   0  0  0  0  0  0  0  0  0  0  0  0
    6.9084    0.1823    5.3866 H   0  0  0  0  0  0  0  0  0  0  0  0
    6.3255    2.9675    4.1573 H   0  0  0  0  0  0  0  0  0  0  0  0
    5.4351    2.2020    5.5226 H   0  0  0  0  0  0  0  0  0  0  0  0
    4.2298    0.9331    3.9869 H   0  0  0  0  0  0  0  0  0  0  0  0
    3.8064   -0.1167    1.8588 H   0  0  0  0  0  0  0  0  0  0  0  0
    5.6887    0.0170   -6.5909 H   0  0  0  0  0  0  0  0  0  0  0  0
    7.3423   -0.0259   -5.8705 H   0  0  0  0  0  0  0  0  0  0  0  0
    6.5557   -1.5619   -6.3884 H   0  0  0  0  0  0  0  0  0  0  0  0
    4.2583   -2.1451   -5.2192 H   0  0  0  0  0  0  0  0  0  0  0  0
    3.2221   -2.3312   -2.9719 H   0  0  0  0  0  0  0  0  0  0  0  0
    2.1793    0.4564   -1.6691 H   0  0  0  0  0  0  0  0  0  0  0  0
    1.0672   -0.6583   -2.5380 H   0  0  0  0  0  0  0  0  0  0  0  0
    0.4618    1.0950   -0.0656 H   0  0  0  0  0  0  0  0  0  0  0  0
   -0.1080    1.3481   -1.7436 H   0  0  0  0  0  0  0  0  0  0  0  0
   -1.3956   -0.8328   -1.6293 H   0  0  0  0  0  0  0  0  0  0  0  0
   -3.5999    0.3565   -1.7700 H   0  0  0  0  0  0  0  0  0  0  0  0
   -2.2775    1.5036   -2.1090 H   0  0  0  0  0  0  0  0  0  0  0  0
   -3.2786    3.2680   -1.0350 H   0  0  0  0  0  0  0  0  0  0  0  0
   -4.7574    2.3290   -1.4144 H   0  0  0  0  0  0  0  0  0  0  0  0
   -5.0335    2.8501    0.8902 H   0  0  0  0  0  0  0  0  0  0  0  0
   -3.2802    2.6943    1.2311 H   0  0  0  0  0  0  0  0  0  0  0  0
   -3.5029   -1.0698    0.3033 H   0  0  0  0  0  0  0  0  0  0  0  0
   -2.5842   -0.3884    1.6863 H   0  0  0  0  0  0  0  0  0  0  0  0
   -8.2189   -0.6711    2.8701 H   0  0  0  0  0  0  0  0  0  0  0  0
   -7.2873   -2.6694    1.7425 H   0  0  0  0  0  0  0  0  0  0  0  0
   -8.9734   -2.3419    1.1995 H   0  0  0  0  0  0  0  0  0  0  0  0
   -7.5884   -1.9276    0.1250 H   0  0  0  0  0  0  0  0  0  0  0  0
   -8.5397    0.4946    0.0318 H   0  0  0  0  0  0  0  0  0  0  0  0
   -9.8515    0.0811    1.2054 H   0  0  0  0  0  0  0  0  0  0  0  0
   -8.7037    1.4180    1.5789 H   0  0  0  0  0  0  0  0  0  0  0  0
   -0.3351   -0.9800    1.2690 H   0  0  0  0  0  0  0  0  0  0  0  0
   -1.4588   -2.1532    0.4792 H   0  0  0  0  0  0  0  0  0  0  0  0
    0.2306   -2.8137   -1.1491 H   0  0  0  0  0  0  0  0  0  0  0  0
    0.8613   -2.9704    0.5263 H   0  0  0  0  0  0  0  0  0  0  0  0
  1  2  1  0
  2  3  1  0
  3  4  1  0
  4  5  2  0
  4  6  1  0
  6  7  1  0
  7  8  1  0
  8  9  1  0
  9 10  2  0
 10 11  1  0
 11 12  1  0
 11 13  2  0
 13 14  1  0
 14 15  2  0
 15 16  1  0
 16 17  1  0
 17 18  2  0
 17 19  1  0
 19 20  1  0
 20 21  1  0
 21 22  1  0
 22 23  1  0
 23 24  1  0
 24 25  1  0
 25 26  1  0
 26 27  1  0
 27 28  1  0
 27 29  1  0
 29 30  1  0
 30 31  2  0
 30 32  1  0
 32 33  1  0
 33 34  1  0
 33 35  1  0
 32 36  1  0
 36 37  2  0
 22 38  1  0
 38 39  1  0
 16  7  2  0
 39 19  1  0
 15  9  1  0
 28 23  1  0
 36 27  1  0
  1 40  1  0
  1 41  1  0
  1 42  1  0
  2 43  1  0
  2 44  1  0
  3 45  1  0
  6 46  1  0
 12 47  1  0
 12 48  1  0
 12 49  1  0
 13 50  1  0
 14 51  1  0
 20 52  1  0
 20 53  1  0
 21 54  1  0
 21 55  1  0
 22 56  1  0
 24 57  1  0
 24 58  1  0
 25 59  1  0
 25 60  1  0
 26 61  1  0
 26 62  1  0
 28 63  1  0
 28 64  1  0
 33 65  1  0
 34 66  1  0
 34 67  1  0
 34 68  1  0
 35 69  1  0
 35 70  1  0
 35 71  1  0
 38 72  1  0
 38 73  1  0
 39 74  1  0
 39 75  1  0
M  END
$$$$

     RDKit          3D

 70 74  0  0  0  0  0  0  0  0999 V2000
   -1.9358    1.6330    2.3510 C   0  0  0  0  0  0  0  0  0  0  0  0
   -1.4559    0.6557    1.3124 C   0  0  0  0  0  0  0  0  0  0  0  0
   -0.1282    0.4866    0.9157 C   0  0  0  0  0  0  0  0  0  0  0  0
    1.0818    1.2347    1.3999 C   0  0  0  0  0  0  0  0  0  0  0  0
    1.2414    2.5481    0.6330 C   0  0  0  0  0  0  0  0  0  0  0  0
    2.7526    3.3751    1.0988 S   0  0  0  0  0  6  0  0  0  0  0  0
    2.9031    4.6385    0.2992 O   0  0  0  0  0  0  0  0  0  0  0  0
    2.7038    3.7299    2.5591 O   0  0  0  0  0  0  0  0  0  0  0  0
    4.1166    2.3114    0.7723 C   0  0  0  0  0  0  0  0  0  0  0  0
    4.7654    1.6419    1.8191 C   0  0  0  0  0  0  0  0  0  0  0  0
    5.7963    0.7400    1.5442 C   0  0  0  0  0  0  0  0  0  0  0  0
    6.1906    0.4976    0.2189 C   0  0  0  0  0  0  0  0  0  0  0  0
    7.2630   -0.5192   -0.0804 C   0  0  0  0  0  0  0  0  0  0  0  0
    6.7168   -1.9530   -0.0326 C   0  0  0  0  0  0  0  0  0  0  0  0
    5.6486   -2.1892   -1.0618 C   0  0  0  0  0  0  0  0  0  0  0  0
    4.4775   -2.4672   -0.6945 O   0  0  0  0  0  0  0  0  0  0  0  0
    5.9391   -2.1151   -2.4208 O   0  0  0  0  0  0  0  0  0  0  0  0
    5.5347    1.1663   -0.8277 C   0  0  0  0  0  0  0  0  0  0  0  0
    4.5039    2.0676   -0.5510 C   0  0  0  0  0  0  0  0  0  0  0  0
   -0.1619   -0.4352   -0.1091 C   0  0  0  0  0  0  0  0  0  0  0  0
    0.8695   -0.9328   -0.9095 C   0  0  0  0  0  0  0  0  0  0  0  0
    0.5395   -1.8572   -1.9138 C   0  0  0  0  0  0  0  0  0  0  0  0
    1.7970   -2.5099   -2.9463 Cl  0  0  0  0  0  0  0  0  0  0  0  0
   -0.8002   -2.2518   -2.1026 C   0  0  0  0  0  0  0  0  0  0  0  0
   -1.8209   -1.7268   -1.2918 C   0  0  0  0  0  0  0  0  0  0  0  0
   -1.4735   -0.8113   -0.2854 C   0  0  0  0  0  0  0  0  0  0  0  0
   -2.2810   -0.1606    0.5958 N   0  0  0  0  0  0  0  0  0  0  0  0
   -3.7547   -0.2056    0.7353 C   0  0  0  0  0  0  0  0  0  0  0  0
   -4.4077    0.8615   -0.1320 C   0  0  0  0  0  0  0  0  0  0  0  0
   -5.3235    1.7650    0.4408 C   0  0  0  0  0  0  0  0  0  0  0  0
   -5.9331    2.7504   -0.3408 C   0  0  0  0  0  0  0  0  0  0  0  0
   -5.6421    2.8429   -1.7031 C   0  0  0  0  0  0  0  0  0  0  0  0
   -4.7402    1.9507   -2.2854 C   0  0  0  0  0  0  0  0  0  0  0  0
   -4.1268    0.9643   -1.5078 C   0  0  0  0  0  0  0  0  0  0  0  0
   -4.3197   -1.6105    0.5699 C   0  0  0  0  0  0  0  0  0  0  0  0
   -5.4168   -1.8995   -0.2706 C   0  0  0  0  0  0  0  0  0  0  0  0
   -5.9107   -3.2041   -0.3678 C   0  0  0  0  0  0  0  0  0  0  0  0
   -5.3314   -4.2323    0.3781 C   0  0  0  0  0  0  0  0  0  0  0  0
   -4.2598   -3.9573    1.2285 C   0  0  0  0  0  0  0  0  0  0  0  0
   -3.7631   -2.6554    1.3323 C   0  0  0  0  0  0  0  0  0  0  0  0
   -2.6888    2.3136    1.9010 H   0  0  0  0  0  0  0  0  0  0  0  0
   -2.3944    1.0824    3.1986 H   0  0  0  0  0  0  0  0  0  0  0  0
   -1.1105    2.2556    2.7479 H   0  0  0  0  0  0  0  0  0  0  0  0
    1.9814    0.6010    1.2584 H   0  0  0  0  0  0  0  0  0  0  0  0
    0.9992    1.4327    2.4885 H   0  0  0  0  0  0  0  0  0  0  0  0
    1.2717    2.3478   -0.4595 H   0  0  0  0  0  0  0  0  0  0  0  0
    0.3835    3.2193    0.8474 H   0  0  0  0  0  0  0  0  0  0  0  0
    4.4612    1.8007    2.8451 H   0  0  0  0  0  0  0  0  0  0  0  0
    6.2783    0.2189    2.3620 H   0  0  0  0  0  0  0  0  0  0  0  0
    7.7211   -0.3199   -1.0740 H   0  0  0  0  0  0  0  0  0  0  0  0
    8.0782   -0.4231    0.6706 H   0  0  0  0  0  0  0  0  0  0  0  0
    7.5494   -2.6644   -0.2180 H   0  0  0  0  0  0  0  0  0  0  0  0
    6.3164   -2.1615    0.9843 H   0  0  0  0  0  0  0  0  0  0  0  0
    6.8761   -1.9122   -2.7479 H   0  0  0  0  0  0  0  0  0  0  0  0
    5.8120    0.9800   -1.8579 H   0  0  0  0  0  0  0  0  0  0  0  0
    3.9958    2.5630   -1.3689 H   0  0  0  0  0  0  0  0  0  0  0  0
    1.8944   -0.6138   -0.7705 H   0  0  0  0  0  0  0  0  0  0  0  0
   -1.0502   -2.9586   -2.8841 H   0  0  0  0  0  0  0  0  0  0  0  0
   -2.8402   -2.0226   -1.4785 H   0  0  0  0  0  0  0  0  0  0  0  0
   -3.9955    0.0356    1.7933 H   0  0  0  0  0  0  0  0  0  0  0  0
   -5.5697    1.7083    1.4936 H   0  0  0  0  0  0  0  0  0  0  0  0
   -6.6332    3.4413    0.1113 H   0  0  0  0  0  0  0  0  0  0  0  0
   -6.1170    3.6040   -2.3081 H   0  0  0  0  0  0  0  0  0  0  0  0
   -4.5176    2.0208   -3.3413 H   0  0  0  0  0  0  0  0  0  0  0  0
   -3.4424    0.2837   -1.9879 H   0  0  0  0  0  0  0  0  0  0  0  0
   -5.8992   -1.1272   -0.8529 H   0  0  0  0  0  0  0  0  0  0  0  0
   -6.7475   -3.4166   -1.0197 H   0  0  0  0  0  0  0  0  0  0  0  0
   -5.7159   -5.2418    0.3033 H   0  0  0  0  0  0  0  0  0  0  0  0
   -3.8146   -4.7532    1.8109 H   0  0  0  0  0  0  0  0  0  0  0  0
   -2.9362   -2.4609    2.0040 H   0  0  0  0  0  0  0  0  0  0  0  0
  1  2  1  0
  2  3  2  0
  3  4  1  0
  4  5  1  0
  5  6  1  0
  6  7  2  0
  6  8  2  0
  6  9  1  0
  9 10  2  0
 10 11  1  0
 11 12  2  0
 12 13  1  0
 13 14  1  0
 14 15  1  0
 15 16  2  0
 15 17  1  0
 12 18  1  0
 18 19  2  0
  3 20  1  0
 20 21  2  0
 21 22  1  0
 22 23  1  0
 22 24  2  0
 24 25  1  0
 25 26  2  0
 26 27  1  0
 27 28  1  0
 28 29  1  0
 29 30  2  0
 30 31  1  0
 31 32  2  0
 32 33  1  0
 33 34  2  0
 28 35  1  0
 35 36  2  0
 36 37  1  0
 37 38  2  0
 38 39  1  0
 39 40  2  0
 27  2  1  0
 34 29  1  0
 40 35  1  0
 19  9  1  0
 26 20  1  0
  1 41  1  0
  1 42  1  0
  1 43  1  0
  4 44  1  0
  4 45  1  0
  5 46  1  0
  5 47  1  0
 10 48  1  0
 11 49  1  0
 13 50  1  0
 13 51  1  0
 14 52  1  0
 14 53  1  0
 17 54  1  0
 18 55  1  0
 19 56  1  0
 21 57  1  0
 24 58  1  0
 25 59  1  0
 28 60  1  0
 30 61  1  0
 31 62  1  0
 32 63  1  0
 33 64  1  0
 34 65  1  0
 36 66  1  0
 37 67  1  0
 38 68  1  0
 39 69  1  0
 40 70  1  0
M  END
$$$$

     RDKit          3D

 52 56  0  0  0  0  0  0  0  0999 V2000
    0.1624    2.3411   -1.2483 O   0  0  0  0  0  0  0  0  0  0  0  0
   -0.0612    1.2740   -0.6173 C   0  0  0  0  0  0  0  0  0  0  0  0
    0.9423    0.2448   -0.5666 N   0  0  0  0  0  0  0  0  0  0  0  0
    2.1957    0.3198   -1.2705 C   0  0  0  0  0  0  0  0  0  0  0  0
    2.2264    0.7459   -2.6104 C   0  0  0  0  0  0  0  0  0  0  0  0
    3.4264    0.7677   -3.3230 C   0  0  0  0  0  0  0  0  0  0  0  0
    4.6090    0.3572   -2.7120 C   0  0  0  0  0  0  0  0  0  0  0  0
    5.7748    0.3889   -3.4038 F   0  0  0  0  0  0  0  0  0  0  0  0
    4.5941   -0.0828   -1.3877 C   0  0  0  0  0  0  0  0  0  0  0  0
    3.3935   -0.1198   -0.6575 C   0  0  0  0  0  0  0  0  0  0  0  0
    3.4157   -0.5748    0.7503 C   0  0  0  0  0  0  0  0  0  0  0  0
    2.7652    0.0577    1.6248 O   0  0  0  0  0  0  0  0  0  0  0  0
    4.1487   -1.7392    1.1359 N   0  0  0  0  0  0  0  0  0  0  0  0
    4.9050   -2.8324    0.4968 C   0  0  0  0  0  0  0  0  0  0  0  0
    5.1279   -3.6203    1.7446 C   0  0  0  0  0  0  0  0  0  0  0  0
    4.3561   -2.5086    2.3747 C   0  0  0  0  0  0  0  0  0  0  0  0
   -1.3167    1.1121    0.1483 C   0  0  0  0  0  0  0  0  0  0  0  0
   -1.2594    0.4469    1.3339 N   0  0  0  0  0  0  0  0  0  0  0  0
   -2.3515    0.2284    2.1115 C   0  0  0  0  0  0  0  0  0  0  0  0
   -2.1463   -0.5160    3.4142 C   0  0  0  0  0  0  0  0  0  0  0  0
   -3.0363   -0.1357    4.5895 C   0  0  0  0  0  0  0  0  0  0  0  0
   -3.2586   -1.4550    3.8593 C   0  0  0  0  0  0  0  0  0  0  0  0
   -3.5940    0.7055    1.6608 C   0  0  0  0  0  0  0  0  0  0  0  0
   -3.6683    1.3579    0.4739 N   0  0  0  0  0  0  0  0  0  0  0  0
   -2.5735    1.5771   -0.3041 C   0  0  0  0  0  0  0  0  0  0  0  0
   -2.7335    2.2529   -1.5637 N   0  0  0  0  0  0  0  0  0  0  0  0
   -3.9062    2.1126   -2.3843 C   0  0  0  0  0  0  0  0  0  0  0  0
   -4.2782    3.1380   -3.2620 C   0  0  0  0  0  0  0  0  0  0  0  0
   -5.3758    2.9999   -4.0463 N   0  0  0  0  0  0  0  0  0  0  0  0
   -6.1212    1.8643   -4.0117 C   0  0  0  0  0  0  0  0  0  0  0  0
   -5.7690    0.8445   -3.1878 N   0  0  0  0  0  0  0  0  0  0  0  0
   -4.6812    0.9435   -2.3781 C   0  0  0  0  0  0  0  0  0  0  0  0
    0.7753   -0.5802    0.0516 H   0  0  0  0  0  0  0  0  0  0  0  0
    1.3155    1.0346   -3.1163 H   0  0  0  0  0  0  0  0  0  0  0  0
    3.4366    1.0977   -4.3536 H   0  0  0  0  0  0  0  0  0  0  0  0
    5.5282   -0.3677   -0.9245 H   0  0  0  0  0  0  0  0  0  0  0  0
    4.2739   -3.3724   -0.2434 H   0  0  0  0  0  0  0  0  0  0  0  0
    5.8584   -2.4648    0.0580 H   0  0  0  0  0  0  0  0  0  0  0  0
    6.1936   -3.6449    2.0620 H   0  0  0  0  0  0  0  0  0  0  0  0
    4.5881   -4.5920    1.7548 H   0  0  0  0  0  0  0  0  0  0  0  0
    3.3849   -2.8501    2.7978 H   0  0  0  0  0  0  0  0  0  0  0  0
    4.9592   -1.9275    3.1073 H   0  0  0  0  0  0  0  0  0  0  0  0
   -1.1206   -0.8470    3.6889 H   0  0  0  0  0  0  0  0  0  0  0  0
   -2.5551   -0.2521    5.5837 H   0  0  0  0  0  0  0  0  0  0  0  0
   -3.8172    0.6303    4.4066 H   0  0  0  0  0  0  0  0  0  0  0  0
   -4.1751   -1.4861    3.2342 H   0  0  0  0  0  0  0  0  0  0  0  0
   -2.9093   -2.3431    4.4274 H   0  0  0  0  0  0  0  0  0  0  0  0
   -4.5016    0.5636    2.2291 H   0  0  0  0  0  0  0  0  0  0  0  0
   -2.0392    2.9795   -1.8412 H   0  0  0  0  0  0  0  0  0  0  0  0
   -3.7014    4.0524   -3.3112 H   0  0  0  0  0  0  0  0  0  0  0  0
   -6.9910    1.7701   -4.6436 H   0  0  0  0  0  0  0  0  0  0  0  0
   -4.4156    0.1036   -1.7508 H   0  0  0  0  0  0  0  0  0  0  0  0
  1  2  2  0
  2  3  1  0
  3  4  1  0
  4  5  2  0
  5  6  1  0
  6  7  2  0
  7  8  1  0
  7  9  1  0
  9 10  2  0
 10 11  1  0
 11 12  2  0
 11 13  1  0
 13 14  1  0
 14 15  1  0
 15 16  1  0
  2 17  1  0
 17 18  2  0
 18 19  1  0
 19 20  1  0
 20 21  1  0
 21 22  1  0
 19 23  2  0
 23 24  1  0
 24 25  2  0
 25 26  1  0
 26 27  1  0
 27 28  2  0
 28 29  1  0
 29 30  2  0
 30 31  1  0
 31 32  2  0
 10  4  1  0
 16 13  1  0
 25 17  1  0
 32 27  1  0
 22 20  1  0
  3 33  1  0
  5 34  1  0
  6 35  1  0
  9 36  1  0
 14 37  1  0
 14 38  1  0
 15 39  1  0
 15 40  1  0
 16 41  1  0
 16 42  1  0
 20 43  1  0
 21 44  1  0
 21 45  1  0
 22 46  1  0
 22 47  1  0
 23 48  1  0
 26 49  1  0
 28 50  1  0
 30 51  1  0
 32 52  1  0
M  END
$$$$

     RDKit          3D

 65 68  0  0  0  0  0  0  0  0999 V2000
   -5.2865   -3.8127   -1.9138 C   0  0  0  0  0  0  0  0  0  0  0  0
   -4.1126   -3.3774   -1.0400 C   0  0  0  0  0  0  0  0  0  0  0  0
   -4.0078   -1.8456   -0.9775 C   0  0  0  0  0  0  0  0  0  0  0  0
   -2.8692   -1.2804   -0.1274 C   0  0  0  0  0  0  0  0  0  0  0  0
   -2.0056   -2.1140    0.5247 N   0  0  0  0  0  0  0  0  0  0  0  0
   -0.9824   -1.6583    1.2908 C   0  0  0  0  0  0  0  0  0  0  0  0
   -0.2260   -2.4957    1.8562 O   0  0  0  0  0  0  0  0  0  0  0  0
   -0.7615   -0.2779    1.4586 C   0  0  0  0  0  0  0  0  0  0  0  0
    0.4194    0.1531    2.3237 C   0  0  0  0  0  0  0  0  0  0  0  0
    1.7223    0.0538    1.5506 C   0  0  0  0  0  0  0  0  0  0  0  0
    1.9360    0.9487    0.4868 C   0  0  0  0  0  0  0  0  0  0  0  0
    3.0753    0.8467   -0.3160 C   0  0  0  0  0  0  0  0  0  0  0  0
    3.2933    1.7268   -1.3868 C   0  0  0  0  0  0  0  0  0  0  0  0
    4.4376    1.6033   -2.1855 C   0  0  0  0  0  0  0  0  0  0  0  0
    4.6110    2.5081   -3.2435 O   0  0  0  0  0  0  0  0  0  0  0  0
    5.7227    2.5015   -4.1330 C   0  0  0  0  0  0  0  0  0  0  0  0
    5.3688    0.5838   -1.9038 C   0  0  0  0  0  0  0  0  0  0  0  0
    5.1533   -0.2946   -0.8375 C   0  0  0  0  0  0  0  0  0  0  0  0
    4.0101   -0.1665   -0.0431 C   0  0  0  0  0  0  0  0  0  0  0  0
    3.8036   -1.0140    0.9960 N   0  0  0  0  0  0  0  0  0  0  0  0
    2.7104   -0.9359    1.8059 C   0  0  0  0  0  0  0  0  0  0  0  0
    2.6020   -1.8611    2.9006 N   0  0  0  0  0  0  0  0  0  0  0  0
    3.2535   -3.1709    2.8431 C   0  0  0  0  0  0  0  0  0  0  0  0
    2.9524   -4.0003    4.0914 C   0  0  0  0  0  0  0  0  0  0  0  0
    1.5871   -4.1813    4.2216 F   0  0  0  0  0  0  0  0  0  0  0  0
    3.4390   -3.3586    5.2161 F   0  0  0  0  0  0  0  0  0  0  0  0
    3.5612   -5.2367    3.9811 F   0  0  0  0  0  0  0  0  0  0  0  0
   -1.6274    0.6328    0.7882 C   0  0  0  0  0  0  0  0  0  0  0  0
   -1.4656    2.0348    0.8840 C   0  0  0  0  0  0  0  0  0  0  0  0
   -2.3229    2.9210    0.2118 C   0  0  0  0  0  0  0  0  0  0  0  0
   -2.1652    4.3153    0.2864 O   0  0  0  0  0  0  0  0  0  0  0  0
   -1.1359    4.9800    1.0123 C   0  0  0  0  0  0  0  0  0  0  0  0
   -3.3690    2.4196   -0.5618 C   0  0  0  0  0  0  0  0  0  0  0  0
   -4.2094    3.3369   -1.2148 O   0  0  0  0  0  0  0  0  0  0  0  0
   -5.3148    2.9815   -2.0395 C   0  0  0  0  0  0  0  0  0  0  0  0
   -3.5509    1.0327   -0.6687 C   0  0  0  0  0  0  0  0  0  0  0  0
   -2.6920    0.1251   -0.0082 C   0  0  0  0  0  0  0  0  0  0  0  0
   -5.1565   -3.4371   -2.9511 H   0  0  0  0  0  0  0  0  0  0  0  0
   -5.3375   -4.9216   -1.9420 H   0  0  0  0  0  0  0  0  0  0  0  0
   -6.2414   -3.4243   -1.5001 H   0  0  0  0  0  0  0  0  0  0  0  0
   -4.2677   -3.7868   -0.0181 H   0  0  0  0  0  0  0  0  0  0  0  0
   -3.1803   -3.8019   -1.4721 H   0  0  0  0  0  0  0  0  0  0  0  0
   -3.8829   -1.4720   -2.0175 H   0  0  0  0  0  0  0  0  0  0  0  0
   -4.9681   -1.4567   -0.5734 H   0  0  0  0  0  0  0  0  0  0  0  0
   -2.1044   -3.1494    0.4539 H   0  0  0  0  0  0  0  0  0  0  0  0
    0.3167    1.1668    2.7494 H   0  0  0  0  0  0  0  0  0  0  0  0
    0.4147   -0.4776    3.2296 H   0  0  0  0  0  0  0  0  0  0  0  0
    1.2079    1.7181    0.2712 H   0  0  0  0  0  0  0  0  0  0  0  0
    2.5767    2.5101   -1.6054 H   0  0  0  0  0  0  0  0  0  0  0  0
    5.7674    1.5367   -4.6811 H   0  0  0  0  0  0  0  0  0  0  0  0
    6.6647    2.6644   -3.5680 H   0  0  0  0  0  0  0  0  0  0  0  0
    5.6032    3.3229   -4.8687 H   0  0  0  0  0  0  0  0  0  0  0  0
    6.2615    0.4625   -2.5019 H   0  0  0  0  0  0  0  0  0  0  0  0
    5.8771   -1.0731   -0.6300 H   0  0  0  0  0  0  0  0  0  0  0  0
    2.1212   -1.5778    3.7815 H   0  0  0  0  0  0  0  0  0  0  0  0
    4.3530   -3.0356    2.7524 H   0  0  0  0  0  0  0  0  0  0  0  0
    2.8893   -3.7207    1.9483 H   0  0  0  0  0  0  0  0  0  0  0  0
   -0.6721    2.4645    1.4645 H   0  0  0  0  0  0  0  0  0  0  0  0
   -1.2141    4.7395    2.0936 H   0  0  0  0  0  0  0  0  0  0  0  0
   -1.2522    6.0756    0.8842 H   0  0  0  0  0  0  0  0  0  0  0  0
   -0.1395    4.6811    0.6230 H   0  0  0  0  0  0  0  0  0  0  0  0
   -6.0635    2.4109   -1.4502 H   0  0  0  0  0  0  0  0  0  0  0  0
   -4.9675    2.3790   -2.9054 H   0  0  0  0  0  0  0  0  0  0  0  0
   -5.7941    3.9062   -2.4209 H   0  0  0  0  0  0  0  0  0  0  0  0
   -4.3664    0.6728   -1.2749 H   0  0  0  0  0  0  0  0  0  0  0  0
  1  2  1  0
  2  3  1  0
  3  4  1  0
  4  5  1  0
  5  6  1  0
  6  7  2  0
  6  8  1  0
  8  9  1  0
  9 10  1  0
 10 11  2  0
 11 12  1  0
 12 13  2  0
 13 14  1  0
 14 15  1  0
 15 16  1  0
 14 17  2  0
 17 18  1  0
 18 19  2  0
 19 20  1  0
 20 21  2  0
 21 22  1  0
 22 23  1  0
 23 24  1  0
 24 25  1  0
 24 26  1  0
 24 27  1  0
  8 28  2  0
 28 29  1  0
 29 30  2  0
 30 31  1  0
 31 32  1  0
 30 33  1  0
 33 34  1  0
 34 35  1  0
 33 36  2  0
 36 37  1  0
 37  4  2  0
 21 10  1  0
 37 28  1  0
 19 12  1  0
  1 38  1  0
  1 39  1  0
  1 40  1  0
  2 41  1  0
  2 42  1  0
  3 43  1  0
  3 44  1  0
  5 45  1  0
  9 46  1  0
  9 47  1  0
 11 48  1  0
 13 49  1  0
 16 50  1  0
 16 51  1  0
 16 52  1  0
 17 53  1  0
 18 54  1  0
 22 55  1  0
 23 56  1  0
 23 57  1  0
 29 58  1  0
 32 59  1  0
 32 60  1  0
 32 61  1  0
 35 62  1  0
 35 63  1  0
 35 64  1  0
 36 65  1  0
M  END
$$$$

     RDKit          3D

 62 64  0  0  0  0  0  0  0  0999 V2000
    6.3670   -2.6251    1.5188 C   0  0  0  0  0  0  0  0  0  0  0  0
    5.8612   -2.0613    0.1772 C   0  0  0  0  0  0  0  0  0  0  0  0
    5.6986   -3.2229   -0.8187 C   0  0  0  0  0  0  0  0  0  0  0  0
    6.8152   -1.1638   -0.3402 O   0  0  0  0  0  0  0  0  0  0  0  0
    4.5024   -1.3439    0.3934 C   0  0  0  0  0  0  0  0  0  0  0  0
    4.0485   -0.6386   -0.8080 N   0  0  0  0  0  0  0  0  0  0  0  0
    2.7908    0.0525   -0.8329 C   0  0  0  0  0  0  0  0  0  0  0  0
    2.0525    0.0383    0.1898 O   0  0  0  0  0  0  0  0  0  0  0  0
    2.3799    0.8106   -2.0386 C   0  0  0  0  0  0  0  0  0  0  0  0
    3.3514    1.2562   -2.8843 N   0  0  0  0  0  0  0  0  0  0  0  0
    3.0742    1.9949   -3.9898 C   0  0  0  0  0  0  0  0  0  0  0  0
    1.7560    2.3251   -4.2949 C   0  0  0  0  0  0  0  0  0  0  0  0
    0.7313    1.8815   -3.4610 C   0  0  0  0  0  0  0  0  0  0  0  0
    1.0262    1.1210   -2.3180 C   0  0  0  0  0  0  0  0  0  0  0  0
   -0.0407    0.5874   -1.5170 N   0  0  0  0  0  0  0  0  0  0  0  0
   -1.1485    1.3778   -1.0534 C   0  0  0  0  0  0  0  0  0  0  0  0
   -1.1925    2.6114   -1.3128 O   0  0  0  0  0  0  0  0  0  0  0  0
   -2.1976    0.7583   -0.2109 C   0  0  0  0  0  0  0  0  0  0  0  0
   -1.8890   -0.3779    0.4694 N   0  0  0  0  0  0  0  0  0  0  0  0
   -2.7710   -0.9838    1.3089 C   0  0  0  0  0  0  0  0  0  0  0  0
   -2.4009   -2.2835    2.0064 C   0  0  0  0  0  0  0  0  0  0  0  0
   -0.8693   -2.3995    2.1688 C   0  0  0  0  0  0  0  0  0  0  0  0
   -3.0474   -2.3391    3.4065 C   0  0  0  0  0  0  0  0  0  0  0  0
   -2.9121   -3.4612    1.1587 C   0  0  0  0  0  0  0  0  0  0  0  0
   -4.0202   -0.4641    1.4450 N   0  0  0  0  0  0  0  0  0  0  0  0
   -4.3881    0.6655    0.7905 C   0  0  0  0  0  0  0  0  0  0  0  0
   -3.4824    1.3209   -0.0539 C   0  0  0  0  0  0  0  0  0  0  0  0
   -3.9040    2.4636   -0.8173 N   0  0  0  0  0  0  0  0  0  0  0  0
   -4.6612    3.5573   -0.2703 C   0  0  0  0  0  0  0  0  0  0  0  0
   -5.3956    4.3946   -1.1171 C   0  0  0  0  0  0  0  0  0  0  0  0
   -6.0934    5.4410   -0.6046 N   0  0  0  0  0  0  0  0  0  0  0  0
   -6.0839    5.7008    0.7280 C   0  0  0  0  0  0  0  0  0  0  0  0
   -5.3636    4.9153    1.5692 N   0  0  0  0  0  0  0  0  0  0  0  0
   -4.6527    3.8572    1.1005 C   0  0  0  0  0  0  0  0  0  0  0  0
    7.3499   -3.1253    1.3819 H   0  0  0  0  0  0  0  0  0  0  0  0
    5.6462   -3.3639    1.9313 H   0  0  0  0  0  0  0  0  0  0  0  0
    6.4962   -1.8091    2.2617 H   0  0  0  0  0  0  0  0  0  0  0  0
    4.9457   -3.9540   -0.4524 H   0  0  0  0  0  0  0  0  0  0  0  0
    6.6665   -3.7522   -0.9544 H   0  0  0  0  0  0  0  0  0  0  0  0
    5.3747   -2.8526   -1.8133 H   0  0  0  0  0  0  0  0  0  0  0  0
    6.8896   -0.4009    0.2919 H   0  0  0  0  0  0  0  0  0  0  0  0
    3.7319   -2.0876    0.6949 H   0  0  0  0  0  0  0  0  0  0  0  0
    4.5989   -0.6055    1.2195 H   0  0  0  0  0  0  0  0  0  0  0  0
    4.6458   -0.6271   -1.6648 H   0  0  0  0  0  0  0  0  0  0  0  0
    3.8796    2.3259   -4.6316 H   0  0  0  0  0  0  0  0  0  0  0  0
    1.5288    2.9073   -5.1787 H   0  0  0  0  0  0  0  0  0  0  0  0
   -0.2949    2.1043   -3.7237 H   0  0  0  0  0  0  0  0  0  0  0  0
    0.0181   -0.4160   -1.2329 H   0  0  0  0  0  0  0  0  0  0  0  0
   -0.6007   -3.3323    2.7107 H   0  0  0  0  0  0  0  0  0  0  0  0
   -0.3642   -2.4250    1.1787 H   0  0  0  0  0  0  0  0  0  0  0  0
   -0.4723   -1.5348    2.7438 H   0  0  0  0  0  0  0  0  0  0  0  0
   -4.1564   -2.3251    3.3348 H   0  0  0  0  0  0  0  0  0  0  0  0
   -2.7535   -3.2700    3.9384 H   0  0  0  0  0  0  0  0  0  0  0  0
   -2.7237   -1.4693    4.0185 H   0  0  0  0  0  0  0  0  0  0  0  0
   -2.6598   -4.4305    1.6410 H   0  0  0  0  0  0  0  0  0  0  0  0
   -4.0161   -3.4080    1.0394 H   0  0  0  0  0  0  0  0  0  0  0  0
   -2.4514   -3.4432    0.1470 H   0  0  0  0  0  0  0  0  0  0  0  0
   -5.3970    1.0384    0.9078 H   0  0  0  0  0  0  0  0  0  0  0  0
   -3.6860    2.4749   -1.8397 H   0  0  0  0  0  0  0  0  0  0  0  0
   -5.4187    4.2113   -2.1835 H   0  0  0  0  0  0  0  0  0  0  0  0
   -6.6454    6.5381    1.1190 H   0  0  0  0  0  0  0  0  0  0  0  0
   -4.0724    3.2656    1.7951 H   0  0  0  0  0  0  0  0  0  0  0  0
  1  2  1  0
  2  3  1  0
  2  4  1  0
  2  5  1  0
  5  6  1  0
  6  7  1  0
  7  8  2  0
  7  9  1  0
  9 10  2  0
 10 11  1  0
 11 12  2  0
 12 13  1  0
 13 14  2  0
 14 15  1  0
 15 16  1  0
 16 17  2  0
 16 18  1  0
 18 19  2  0
 19 20  1  0
 20 21  1  0
 21 22  1  0
 21 23  1  0
 21 24  1  0
 20 25  2  0
 25 26  1  0
 26 27  2  0
 27 28  1  0
 28 29  1  0
 29 30  2  0
 30 31  1  0
 31 32  2  0
 32 33  1  0
 33 34  2  0
 14  9  1  0
 27 18  1  0
 34 29  1  0
  1 35  1  0
  1 36  1  0
  1 37  1  0
  3 38  1  0
  3 39  1  0
  3 40  1  0
  4 41  1  0
  5 42  1  0
  5 43  1  0
  6 44  1  0
 11 45  1  0
 12 46  1  0
 13 47  1  0
 15 48  1  0
 22 49  1  0
 22 50  1  0
 22 51  1  0
 23 52  1  0
 23 53  1  0
 23 54  1  0
 24 55  1  0
 24 56  1  0
 24 57  1  0
 26 58  1  0
 28 59  1  0
 30 60  1  0
 32 61  1  0
 34 62  1  0
M  END
$$$$

     RDKit          3D

 52 56  0  0  0  0  0  0  0  0999 V2000
   -2.4054   -3.6255    3.0535 C   0  0  0  0  0  0  0  0  0  0  0  0
   -3.3242   -2.5523    2.6876 N   0  0  0  0  0  0  0  0  0  0  0  0
   -4.5681   -2.4840    3.1360 N   0  0  0  0  0  0  0  0  0  0  0  0
   -5.1227   -1.3579    2.6491 C   0  0  0  0  0  0  0  0  0  0  0  0
   -4.2025   -0.6961    1.8586 C   0  0  0  0  0  0  0  0  0  0  0  0
   -4.4541    0.5602    1.1299 C   0  0  0  0  0  0  0  0  0  0  0  0
   -5.0866    1.4807    1.7143 O   0  0  0  0  0  0  0  0  0  0  0  0
   -4.0267    0.7465   -0.2305 N   0  0  0  0  0  0  0  0  0  0  0  0
   -3.8643   -0.3377   -1.1869 C   0  0  0  0  0  0  0  0  0  0  0  0
   -3.8293    0.3267   -2.5571 C   0  0  0  0  0  0  0  0  0  0  0  0
   -3.5379    1.8007   -2.2932 C   0  0  0  0  0  0  0  0  0  0  0  0
   -3.9867    2.0540   -0.8619 C   0  0  0  0  0  0  0  0  0  0  0  0
   -3.0531   -1.4747    1.9161 C   0  0  0  0  0  0  0  0  0  0  0  0
   -1.7272   -1.1722    1.3324 C   0  0  0  0  0  0  0  0  0  0  0  0
   -1.0274   -2.1202    0.8859 O   0  0  0  0  0  0  0  0  0  0  0  0
   -1.2511    0.1827    1.2491 N   0  0  0  0  0  0  0  0  0  0  0  0
   -0.0160    0.5612    0.6198 C   0  0  0  0  0  0  0  0  0  0  0  0
    0.0457    1.7590   -0.1297 C   0  0  0  0  0  0  0  0  0  0  0  0
    1.2439    2.1621   -0.7412 C   0  0  0  0  0  0  0  0  0  0  0  0
    2.3584    1.3497   -0.5636 C   0  0  0  0  0  0  0  0  0  0  0  0
    3.5938    1.5600   -1.0508 N   0  0  0  0  0  0  0  0  0  0  0  0
    4.2641    0.4828   -0.5578 C   0  0  0  0  0  0  0  0  0  0  0  0
    5.6996    0.2305   -0.8077 C   0  0  0  0  0  0  0  0  0  0  0  0
    6.4547    1.1220   -1.5915 C   0  0  0  0  0  0  0  0  0  0  0  0
    7.8121    0.8811   -1.8264 C   0  0  0  0  0  0  0  0  0  0  0  0
    8.4279   -0.2488   -1.2830 C   0  0  0  0  0  0  0  0  0  0  0  0
    7.6875   -1.1404   -0.5033 C   0  0  0  0  0  0  0  0  0  0  0  0
    6.3298   -0.9044   -0.2652 C   0  0  0  0  0  0  0  0  0  0  0  0
    3.4795   -0.3342    0.1887 N   0  0  0  0  0  0  0  0  0  0  0  0
    2.2909    0.2331    0.1657 N   0  0  0  0  0  0  0  0  0  0  0  0
    1.1610   -0.2023    0.7757 C   0  0  0  0  0  0  0  0  0  0  0  0
   -1.5077   -3.2003    3.5497 H   0  0  0  0  0  0  0  0  0  0  0  0
   -2.1008   -4.1868    2.1457 H   0  0  0  0  0  0  0  0  0  0  0  0
   -2.8992   -4.3313    3.7548 H   0  0  0  0  0  0  0  0  0  0  0  0
   -6.1405   -1.0475    2.8455 H   0  0  0  0  0  0  0  0  0  0  0  0
   -2.9101   -0.8701   -1.0059 H   0  0  0  0  0  0  0  0  0  0  0  0
   -4.7153   -1.0499   -1.1188 H   0  0  0  0  0  0  0  0  0  0  0  0
   -3.0535   -0.1280   -3.2107 H   0  0  0  0  0  0  0  0  0  0  0  0
   -4.8237    0.2277   -3.0454 H   0  0  0  0  0  0  0  0  0  0  0  0
   -2.4437    1.9823   -2.3780 H   0  0  0  0  0  0  0  0  0  0  0  0
   -4.0762    2.4567   -3.0111 H   0  0  0  0  0  0  0  0  0  0  0  0
   -3.2721    2.7197   -0.3327 H   0  0  0  0  0  0  0  0  0  0  0  0
   -5.0024    2.5063   -0.8518 H   0  0  0  0  0  0  0  0  0  0  0  0
   -1.8690    0.9526    1.5879 H   0  0  0  0  0  0  0  0  0  0  0  0
   -0.8376    2.3725   -0.2443 H   0  0  0  0  0  0  0  0  0  0  0  0
    1.2976    3.0729   -1.3234 H   0  0  0  0  0  0  0  0  0  0  0  0
    5.9978    2.0039   -2.0226 H   0  0  0  0  0  0  0  0  0  0  0  0
    8.3869    1.5713   -2.4304 H   0  0  0  0  0  0  0  0  0  0  0  0
    9.4786   -0.4333   -1.4660 H   0  0  0  0  0  0  0  0  0  0  0  0
    8.1658   -2.0156   -0.0827 H   0  0  0  0  0  0  0  0  0  0  0  0
    5.7751   -1.6087    0.3420 H   0  0  0  0  0  0  0  0  0  0  0  0
    1.1842   -1.0955    1.3857 H   0  0  0  0  0  0  0  0  0  0  0  0
  1  2  1  0
  2  3  1  0
  3  4  2  0
  4  5  1  0
  5  6  1  0
  6  7  2  0
  6  8  1  0
  8  9  1  0
  9 10  1  0
 10 11  1  0
 11 12  1  0
  5 13  2  0
 13 14  1  0
 14 15  2  0
 14 16  1  0
 16 17  1  0
 17 18  1  0
 18 19  2  0
 19 20  1  0
 20 21  2  0
 21 22  1  0
 22 23  1  0
 23 24  2  0
 24 25  1  0
 25 26  2  0
 26 27  1  0
 27 28  2  0
 22 29  2  0
 29 30  1  0
 30 31  1  0
 13  2  1  0
 31 17  2  0
 12  8  1  0
 30 20  1  0
 28 23  1  0
  1 32  1  0
  1 33  1  0
  1 34  1  0
  4 35  1  0
  9 36  1  0
  9 37  1  0
 10 38  1  0
 10 39  1  0
 11 40  1  0
 11 41  1  0
 12 42  1  0
 12 43  1  0
 16 44  1  0
 18 45  1  0
 19 46  1  0
 24 47  1  0
 25 48  1  0
 26 49  1  0
 27 50  1  0
 28 51  1  0
 31 52  1  0
M  END
$$$$

     RDKit          3D

 56 60  0  0  0  0  0  0  0  0999 V2000
   -2.8906   -0.4339   -5.1629 C   0  0  0  0  0  0  0  0  0  0  0  0
   -3.6504   -0.9508   -4.0290 N   0  0  0  0  0  0  0  0  0  0  0  0
   -4.6782   -1.7746   -4.1573 N   0  0  0  0  0  0  0  0  0  0  0  0
   -5.1050   -2.0993   -2.9208 C   0  0  0  0  0  0  0  0  0  0  0  0
   -4.3219   -1.4573   -1.9799 C   0  0  0  0  0  0  0  0  0  0  0  0
   -4.5026   -1.5212   -0.5182 C   0  0  0  0  0  0  0  0  0  0  0  0
   -4.9989   -2.5625   -0.0103 O   0  0  0  0  0  0  0  0  0  0  0  0
   -4.1458   -0.4163    0.3306 N   0  0  0  0  0  0  0  0  0  0  0  0
   -3.7088   -0.6903    1.7038 C   0  0  0  0  0  0  0  0  0  0  0  0
   -2.9353    0.5098    2.2541 C   0  0  0  0  0  0  0  0  0  0  0  0
   -3.6908    1.6966    2.1136 O   0  0  0  0  0  0  0  0  0  0  0  0
   -3.8468    1.9949    0.7383 C   0  0  0  0  0  0  0  0  0  0  0  0
   -4.6848    0.9172    0.0371 C   0  0  0  0  0  0  0  0  0  0  0  0
   -3.3925   -0.7400   -2.7196 C   0  0  0  0  0  0  0  0  0  0  0  0
   -2.2313    0.0156   -2.2126 C   0  0  0  0  0  0  0  0  0  0  0  0
   -1.9860    1.1586   -2.6830 O   0  0  0  0  0  0  0  0  0  0  0  0
   -1.3789   -0.5462   -1.2025 N   0  0  0  0  0  0  0  0  0  0  0  0
   -0.0014   -0.1768   -1.0403 C   0  0  0  0  0  0  0  0  0  0  0  0
    0.8017    0.1775   -2.1519 C   0  0  0  0  0  0  0  0  0  0  0  0
    2.1679    0.4670   -1.9874 C   0  0  0  0  0  0  0  0  0  0  0  0
    2.6886    0.3850   -0.7011 C   0  0  0  0  0  0  0  0  0  0  0  0
    3.9628    0.6092   -0.3334 N   0  0  0  0  0  0  0  0  0  0  0  0
    3.8910    0.3885    1.0075 C   0  0  0  0  0  0  0  0  0  0  0  0
    5.0220    0.5056    1.8902 N   0  0  0  0  0  0  0  0  0  0  0  0
    6.3815    0.4612    1.3355 C   0  0  0  0  0  0  0  0  0  0  0  0
    7.3763    1.1180    2.2993 C   0  0  0  0  0  0  0  0  0  0  0  0
    7.2259    0.6040    3.6085 O   0  0  0  0  0  0  0  0  0  0  0  0
    5.9590    0.9763    4.1148 C   0  0  0  0  0  0  0  0  0  0  0  0
    4.8427    0.2827    3.3300 C   0  0  0  0  0  0  0  0  0  0  0  0
    2.6490    0.0462    1.4319 N   0  0  0  0  0  0  0  0  0  0  0  0
    1.9168    0.0488    0.3367 N   0  0  0  0  0  0  0  0  0  0  0  0
    0.5990   -0.2508    0.2292 C   0  0  0  0  0  0  0  0  0  0  0  0
   -1.8270   -0.7344   -5.0716 H   0  0  0  0  0  0  0  0  0  0  0  0
   -3.2953   -0.8410   -6.1125 H   0  0  0  0  0  0  0  0  0  0  0  0
   -2.9621    0.6734   -5.1912 H   0  0  0  0  0  0  0  0  0  0  0  0
   -5.9427   -2.7540   -2.7195 H   0  0  0  0  0  0  0  0  0  0  0  0
   -3.0490   -1.5845    1.7247 H   0  0  0  0  0  0  0  0  0  0  0  0
   -4.5962   -0.8854    2.3419 H   0  0  0  0  0  0  0  0  0  0  0  0
   -2.7343    0.3414    3.3319 H   0  0  0  0  0  0  0  0  0  0  0  0
   -1.9511    0.6001    1.7480 H   0  0  0  0  0  0  0  0  0  0  0  0
   -2.8562    2.1109    0.2353 H   0  0  0  0  0  0  0  0  0  0  0  0
   -4.3720    2.9678    0.6467 H   0  0  0  0  0  0  0  0  0  0  0  0
   -4.6882    1.1155   -1.0576 H   0  0  0  0  0  0  0  0  0  0  0  0
   -5.7347    0.9731    0.4029 H   0  0  0  0  0  0  0  0  0  0  0  0
   -1.7479   -1.3081   -0.5937 H   0  0  0  0  0  0  0  0  0  0  0  0
    0.3818    0.1963   -3.1463 H   0  0  0  0  0  0  0  0  0  0  0  0
    2.7938    0.7330   -2.8325 H   0  0  0  0  0  0  0  0  0  0  0  0
    6.6695   -0.6006    1.1700 H   0  0  0  0  0  0  0  0  0  0  0  0
    6.4272    0.9924    0.3611 H   0  0  0  0  0  0  0  0  0  0  0  0
    8.4068    0.8935    1.9503 H   0  0  0  0  0  0  0  0  0  0  0  0
    7.2603    2.2250    2.2823 H   0  0  0  0  0  0  0  0  0  0  0  0
    5.8986    0.6631    5.1761 H   0  0  0  0  0  0  0  0  0  0  0  0
    5.8216    2.0820    4.0960 H   0  0  0  0  0  0  0  0  0  0  0  0
    3.8653    0.6895    3.6702 H   0  0  0  0  0  0  0  0  0  0  0  0
    4.8657   -0.8088    3.5356 H   0  0  0  0  0  0  0  0  0  0  0  0
    0.0318   -0.5444    1.1010 H   0  0  0  0  0  0  0  0  0  0  0  0
  1  2  1  0
  2  3  1  0
  3  4  2  0
  4  5  1  0
  5  6  1  0
  6  7  2  0
  6  8  1  0
  8  9  1  0
  9 10  1  0
 10 11  1  0
 11 12  1  0
 12 13  1  0
  5 14  2  0
 14 15  1  0
 15 16  2  0
 15 17  1  0
 17 18  1  0
 18 19  1  0
 19 20  2  0
 20 21  1  0
 21 22  2  0
 22 23  1  0
 23 24  1  0
 24 25  1  0
 25 26  1  0
 26 27  1  0
 27 28  1  0
 28 29  1  0
 23 30  2  0
 30 31  1  0
 31 32  1  0
 14  2  1  0
 32 18  2  0
 13  8  1  0
 31 21  1  0
 29 24  1  0
  1 33  1  0
  1 34  1  0
  1 35  1  0
  4 36  1  0
  9 37  1  0
  9 38  1  0
 10 39  1  0
 10 40  1  0
 12 41  1  0
 12 42  1  0
 13 43  1  0
 13 44  1  0
 17 45  1  0
 19 46  1  0
 20 47  1  0
 25 48  1  0
 25 49  1  0
 26 50  1  0
 26 51  1  0
 28 52  1  0
 28 53  1  0
 29 54  1  0
 29 55  1  0
 32 56  1  0
M  END
$$$$

     RDKit          3D

 71 75  0  0  0  0  0  0  0  0999 V2000
    7.2930    3.5325    3.5058 C   0  0  0  0  0  0  0  0  0  0  0  0
    6.3089    3.1588    2.3984 C   0  0  0  0  0  0  0  0  0  0  0  0
    6.4032    1.7375    2.0673 N   0  0  0  0  0  0  0  0  0  0  0  0
    5.6492    1.1862    0.9823 C   0  0  0  0  0  0  0  0  0  0  0  0
    4.6707    1.8253    0.5073 O   0  0  0  0  0  0  0  0  0  0  0  0
    6.0653   -0.0506    0.3851 N   0  0  0  0  0  0  0  0  0  0  0  0
    5.3987   -0.6225   -0.7477 C   0  0  0  0  0  0  0  0  0  0  0  0
    6.2059   -1.0754   -2.1627 S   0  0  0  0  0  0  0  0  0  0  0  0
    4.8183   -1.5794   -2.9537 C   0  0  0  0  0  0  0  0  0  0  0  0
    4.6923   -2.1120   -4.2306 C   0  0  0  0  0  0  0  0  0  0  0  0
    3.4114   -2.4900   -4.6608 C   0  0  0  0  0  0  0  0  0  0  0  0
    2.3088   -2.3230   -3.7992 C   0  0  0  0  0  0  0  0  0  0  0  0
    2.4816   -1.8008   -2.5496 N   0  0  0  0  0  0  0  0  0  0  0  0
    3.7166   -1.4177   -2.1285 C   0  0  0  0  0  0  0  0  0  0  0  0
    4.0218   -0.8828   -0.8667 C   0  0  0  0  0  0  0  0  0  0  0  0
    3.0341   -0.7258    0.2208 C   0  0  0  0  0  0  0  0  0  0  0  0
    3.3972   -0.8652    1.4185 O   0  0  0  0  0  0  0  0  0  0  0  0
    1.6658   -0.4056   -0.0691 N   0  0  0  0  0  0  0  0  0  0  0  0
    1.3748    0.8626   -0.7518 C   0  0  0  0  0  0  0  0  0  0  0  0
   -0.1110    1.2132   -0.6562 C   0  0  0  0  0  0  0  0  0  0  0  0
   -0.9654    0.0188   -1.1267 C   0  0  0  0  0  0  0  0  0  0  0  0
   -2.4130    0.3607   -1.1365 N   0  0  0  0  0  0  0  0  0  0  0  0
   -3.2264   -0.6557   -1.8329 C   0  0  0  0  0  0  0  0  0  0  0  0
   -4.5867   -0.0643   -2.2287 C   0  0  0  0  0  0  0  0  0  0  0  0
   -5.0828    1.0056   -1.2373 C   0  0  0  0  0  0  0  0  0  0  0  0
   -4.5408    0.7740    0.1910 C   0  0  0  0  0  0  0  0  0  0  0  0
   -2.9788    0.7369    0.1847 C   0  0  0  0  0  0  0  0  0  0  0  0
   -5.1637   -0.5017    0.8368 C   0  0  0  0  0  0  0  0  0  0  0  0
   -5.8481   -0.0504    2.1639 C   0  0  0  0  0  0  0  0  0  0  0  0
   -5.1197   -0.6191    3.3887 C   0  0  0  0  0  0  0  0  0  0  0  0
   -7.3352   -0.4359    2.1945 C   0  0  0  0  0  0  0  0  0  0  0  0
   -5.7385    1.3606    2.1856 O   0  0  0  0  0  0  0  0  0  0  0  0
   -5.0348    1.8417    1.1075 C   0  0  0  0  0  0  0  0  0  0  0  0
   -4.8264    3.0715    0.9378 O   0  0  0  0  0  0  0  0  0  0  0  0
   -0.6263   -1.3031   -0.3663 C   0  0  0  0  0  0  0  0  0  0  0  0
    0.5920   -1.1802    0.5674 C   0  0  0  0  0  0  0  0  0  0  0  0
    7.0404    2.9968    4.4475 H   0  0  0  0  0  0  0  0  0  0  0  0
    7.2429    4.6273    3.6949 H   0  0  0  0  0  0  0  0  0  0  0  0
    8.3302    3.2665    3.2071 H   0  0  0  0  0  0  0  0  0  0  0  0
    5.2726    3.3958    2.7314 H   0  0  0  0  0  0  0  0  0  0  0  0
    6.5437    3.7577    1.4903 H   0  0  0  0  0  0  0  0  0  0  0  0
    7.1423    1.1425    2.5069 H   0  0  0  0  0  0  0  0  0  0  0  0
    7.0388   -0.3710    0.5865 H   0  0  0  0  0  0  0  0  0  0  0  0
    5.5551   -2.2411   -4.8741 H   0  0  0  0  0  0  0  0  0  0  0  0
    3.2709   -2.9119   -5.6497 H   0  0  0  0  0  0  0  0  0  0  0  0
    1.3201   -2.6197   -4.1243 H   0  0  0  0  0  0  0  0  0  0  0  0
    1.6680    0.7875   -1.8204 H   0  0  0  0  0  0  0  0  0  0  0  0
    1.9614    1.6859   -0.2912 H   0  0  0  0  0  0  0  0  0  0  0  0
   -0.3208    2.1044   -1.2847 H   0  0  0  0  0  0  0  0  0  0  0  0
   -0.3398    1.4684    0.4011 H   0  0  0  0  0  0  0  0  0  0  0  0
   -0.6605   -0.1418   -2.1864 H   0  0  0  0  0  0  0  0  0  0  0  0
   -2.7178   -1.0059   -2.7588 H   0  0  0  0  0  0  0  0  0  0  0  0
   -3.3758   -1.5489   -1.1850 H   0  0  0  0  0  0  0  0  0  0  0  0
   -4.5086    0.3964   -3.2386 H   0  0  0  0  0  0  0  0  0  0  0  0
   -5.3288   -0.8888   -2.3010 H   0  0  0  0  0  0  0  0  0  0  0  0
   -4.7549    2.0065   -1.6011 H   0  0  0  0  0  0  0  0  0  0  0  0
   -6.1976    1.0055   -1.2289 H   0  0  0  0  0  0  0  0  0  0  0  0
   -2.6013    0.0786    0.9917 H   0  0  0  0  0  0  0  0  0  0  0  0
   -2.6042    1.7519    0.4288 H   0  0  0  0  0  0  0  0  0  0  0  0
   -4.4038   -1.2929    1.0174 H   0  0  0  0  0  0  0  0  0  0  0  0
   -5.9104   -0.9620    0.1536 H   0  0  0  0  0  0  0  0  0  0  0  0
   -4.0533   -0.3051    3.3785 H   0  0  0  0  0  0  0  0  0  0  0  0
   -5.1708   -1.7297    3.3920 H   0  0  0  0  0  0  0  0  0  0  0  0
   -5.5840   -0.2366    4.3222 H   0  0  0  0  0  0  0  0  0  0  0  0
   -7.8094   -0.0582    3.1252 H   0  0  0  0  0  0  0  0  0  0  0  0
   -7.8659    0.0112    1.3303 H   0  0  0  0  0  0  0  0  0  0  0  0
   -7.4510   -1.5406    2.1545 H   0  0  0  0  0  0  0  0  0  0  0  0
   -1.4853   -1.6763    0.2265 H   0  0  0  0  0  0  0  0  0  0  0  0
   -0.4046   -2.0944   -1.1193 H   0  0  0  0  0  0  0  0  0  0  0  0
    0.2945   -0.6796    1.5139 H   0  0  0  0  0  0  0  0  0  0  0  0
    0.9554   -2.1986    0.8250 H   0  0  0  0  0  0  0  0  0  0  0  0
  1  2  1  0
  2  3  1  0
  3  4  1  0
  4  5  2  0
  4  6  1  0
  6  7  1  0
  7  8  1  0
  8  9  1  0
  9 10  2  0
 10 11  1  0
 11 12  2  0
 12 13  1  0
 13 14  2  0
 14 15  1  0
 15 16  1  0
 16 17  2  0
 16 18  1  0
 18 19  1  0
 19 20  1  0
 20 21  1  0
 21 22  1  0
 22 23  1  0
 23 24  1  0
 24 25  1  0
 25 26  1  0
 26 27  1  0
 26 28  1  0
 28 29  1  0
 29 30  1  0
 29 31  1  0
 29 32  1  0
 32 33  1  0
 33 34  2  0
 21 35  1  0
 35 36  1  0
 15  7  2  0
 36 18  1  0
 14  9  1  0
 27 22  1  0
 33 26  1  0
  1 37  1  0
  1 38  1  0
  1 39  1  0
  2 40  1  0
  2 41  1  0
  3 42  1  0
  6 43  1  0
 10 44  1  0
 11 45  1  0
 12 46  1  0
 19 47  1  0
 19 48  1  0
 20 49  1  0
 20 50  1  0
 21 51  1  0
 23 52  1  0
 23 53  1  0
 24 54  1  0
 24 55  1  0
 25 56  1  0
 25 57  1  0
 27 58  1  0
 27 59  1  0
 28 60  1  0
 28 61  1  0
 30 62  1  0
 30 63  1  0
 30 64  1  0
 31 65  1  0
 31 66  1  0
 31 67  1  0
 35 68  1  0
 35 69  1  0
 36 70  1  0
 36 71  1  0
M  END
$$$$

     RDKit          3D

 71 75  0  0  0  0  0  0  0  0999 V2000
    6.2502    4.4383    3.1347 C   0  0  0  0  0  0  0  0  0  0  0  0
    6.7118    3.1228    2.5164 C   0  0  0  0  0  0  0  0  0  0  0  0
    5.6285    2.4831    1.7682 N   0  0  0  0  0  0  0  0  0  0  0  0
    5.8196    1.2413    1.0801 C   0  0  0  0  0  0  0  0  0  0  0  0
    6.9453    0.6715    1.1186 O   0  0  0  0  0  0  0  0  0  0  0  0
    4.7335    0.6779    0.3279 N   0  0  0  0  0  0  0  0  0  0  0  0
    4.7344   -0.6296   -0.2780 C   0  0  0  0  0  0  0  0  0  0  0  0
    5.9960   -1.7593   -0.2150 S   0  0  0  0  0  0  0  0  0  0  0  0
    5.2207   -2.9018   -1.1775 C   0  0  0  0  0  0  0  0  0  0  0  0
    5.6846   -4.1600   -1.5600 C   0  0  0  0  0  0  0  0  0  0  0  0
    4.8534   -4.9635   -2.3568 C   0  0  0  0  0  0  0  0  0  0  0  0
    3.5872   -4.4987   -2.7590 C   0  0  0  0  0  0  0  0  0  0  0  0
    3.1451   -3.2205   -2.3704 C   0  0  0  0  0  0  0  0  0  0  0  0
    3.9787   -2.4248   -1.5721 C   0  0  0  0  0  0  0  0  0  0  0  0
    3.6956   -1.1409   -1.0699 C   0  0  0  0  0  0  0  0  0  0  0  0
    2.4534   -0.4053   -1.3537 C   0  0  0  0  0  0  0  0  0  0  0  0
    2.2352   -0.0170   -2.5393 O   0  0  0  0  0  0  0  0  0  0  0  0
    1.5295   -0.0752   -0.2949 N   0  0  0  0  0  0  0  0  0  0  0  0
    1.3372   -0.9705    0.8494 C   0  0  0  0  0  0  0  0  0  0  0  0
   -0.0102   -1.6858    0.7044 C   0  0  0  0  0  0  0  0  0  0  0  0
   -1.1746   -0.6814    0.5232 C   0  0  0  0  0  0  0  0  0  0  0  0
   -2.4538   -1.4513    0.3848 N   0  0  0  0  0  0  0  0  0  0  0  0
   -3.0581   -1.7944    1.6923 C   0  0  0  0  0  0  0  0  0  0  0  0
   -3.6859   -0.5696    2.3946 C   0  0  0  0  0  0  0  0  0  0  0  0
   -4.0603    0.5587    1.4195 C   0  0  0  0  0  0  0  0  0  0  0  0
   -4.5272    0.0098    0.0584 C   0  0  0  0  0  0  0  0  0  0  0  0
   -3.4955   -0.9796   -0.5690 C   0  0  0  0  0  0  0  0  0  0  0  0
   -5.8356   -0.6450    0.2089 N   0  0  0  0  0  0  0  0  0  0  0  0
   -6.7867    0.0632   -0.5765 C   0  0  0  0  0  0  0  0  0  0  0  0
   -8.0109   -0.2257   -0.6096 O   0  0  0  0  0  0  0  0  0  0  0  0
   -6.2163    1.1504   -1.2864 N   0  0  0  0  0  0  0  0  0  0  0  0
   -6.9277    2.2586   -1.9196 C   0  0  0  0  0  0  0  0  0  0  0  0
   -7.3028    3.3162   -0.8886 C   0  0  0  0  0  0  0  0  0  0  0  0
   -4.8512    1.1435   -0.8887 C   0  0  0  0  0  0  0  0  0  0  0  0
   -4.0227    2.0089   -1.2818 O   0  0  0  0  0  0  0  0  0  0  0  0
   -0.8571    0.2649   -0.6662 C   0  0  0  0  0  0  0  0  0  0  0  0
    0.5000    0.9477   -0.4893 C   0  0  0  0  0  0  0  0  0  0  0  0
    7.0972    4.9122    3.6767 H   0  0  0  0  0  0  0  0  0  0  0  0
    5.4171    4.2555    3.8553 H   0  0  0  0  0  0  0  0  0  0  0  0
    5.9052    5.1345    2.3352 H   0  0  0  0  0  0  0  0  0  0  0  0
    7.0561    2.4433    3.3284 H   0  0  0  0  0  0  0  0  0  0  0  0
    7.5646    3.3201    1.8298 H   0  0  0  0  0  0  0  0  0  0  0  0
    4.6878    2.9355    1.7165 H   0  0  0  0  0  0  0  0  0  0  0  0
    3.8745    1.2601    0.2273 H   0  0  0  0  0  0  0  0  0  0  0  0
    6.6599   -4.5121   -1.2515 H   0  0  0  0  0  0  0  0  0  0  0  0
    5.1841   -5.9520   -2.6546 H   0  0  0  0  0  0  0  0  0  0  0  0
    2.9537   -5.1304   -3.3744 H   0  0  0  0  0  0  0  0  0  0  0  0
    2.1720   -2.8737   -2.6812 H   0  0  0  0  0  0  0  0  0  0  0  0
    1.3474   -0.3774    1.7893 H   0  0  0  0  0  0  0  0  0  0  0  0
    2.1438   -1.7279    0.9205 H   0  0  0  0  0  0  0  0  0  0  0  0
    0.0308   -2.3655   -0.1771 H   0  0  0  0  0  0  0  0  0  0  0  0
   -0.1728   -2.3160    1.6038 H   0  0  0  0  0  0  0  0  0  0  0  0
   -1.2061   -0.0436    1.4368 H   0  0  0  0  0  0  0  0  0  0  0  0
   -2.3079   -2.2631    2.3665 H   0  0  0  0  0  0  0  0  0  0  0  0
   -3.8405   -2.5702    1.5328 H   0  0  0  0  0  0  0  0  0  0  0  0
   -2.9738   -0.1622    3.1478 H   0  0  0  0  0  0  0  0  0  0  0  0
   -4.5913   -0.8971    2.9478 H   0  0  0  0  0  0  0  0  0  0  0  0
   -3.1793    1.2220    1.2719 H   0  0  0  0  0  0  0  0  0  0  0  0
   -4.8580    1.1853    1.8791 H   0  0  0  0  0  0  0  0  0  0  0  0
   -4.0406   -1.8756   -0.9405 H   0  0  0  0  0  0  0  0  0  0  0  0
   -3.0571   -0.5717   -1.5005 H   0  0  0  0  0  0  0  0  0  0  0  0
   -6.0477   -1.4718    0.8120 H   0  0  0  0  0  0  0  0  0  0  0  0
   -6.2828    2.7150   -2.6978 H   0  0  0  0  0  0  0  0  0  0  0  0
   -7.8495    1.8778   -2.4102 H   0  0  0  0  0  0  0  0  0  0  0  0
   -7.8203    4.1639   -1.3832 H   0  0  0  0  0  0  0  0  0  0  0  0
   -7.9724    2.8746   -0.1181 H   0  0  0  0  0  0  0  0  0  0  0  0
   -6.3881    3.7073   -0.3922 H   0  0  0  0  0  0  0  0  0  0  0  0
   -1.6272    1.0591   -0.7361 H   0  0  0  0  0  0  0  0  0  0  0  0
   -0.8346   -0.3156   -1.6152 H   0  0  0  0  0  0  0  0  0  0  0  0
    0.7195    1.5875   -1.3694 H   0  0  0  0  0  0  0  0  0  0  0  0
    0.4732    1.6153    0.3992 H   0  0  0  0  0  0  0  0  0  0  0  0
  1  2  1  0
  2  3  1  0
  3  4  1  0
  4  5  2  0
  4  6  1  0
  6  7  1  0
  7  8  1  0
  8  9  1  0
  9 10  2  0
 10 11  1  0
 11 12  2  0
 12 13  1  0
 13 14  2  0
 14 15  1  0
 15 16  1  0
 16 17  2  0
 16 18  1  0
 18 19  1  0
 19 20  1  0
 20 21  1  0
 21 22  1  0
 22 23  1  0
 23 24  1  0
 24 25  1  0
 25 26  1  0
 26 27  1  0
 26 28  1  0
 28 29  1  0
 29 30  2  0
 29 31  1  0
 31 32  1  0
 32 33  1  0
 31 34  1  0
 34 35  2  0
 21 36  1  0
 36 37  1  0
 15  7  2  0
 37 18  1  0
 14  9  1  0
 27 22  1  0
 34 26  1  0
  1 38  1  0
  1 39  1  0
  1 40  1  0
  2 41  1  0
  2 42  1  0
  3 43  1  0
  6 44  1  0
 10 45  1  0
 11 46  1  0
 12 47  1  0
 13 48  1  0
 19 49  1  0
 19 50  1  0
 20 51  1  0
 20 52  1  0
 21 53  1  0
 23 54  1  0
 23 55  1  0
 24 56  1  0
 24 57  1  0
 25 58  1  0
 25 59  1  0
 27 60  1  0
 27 61  1  0
 28 62  1  0
 32 63  1  0
 32 64  1  0
 33 65  1  0
 33 66  1  0
 33 67  1  0
 36 68  1  0
 36 69  1  0
 37 70  1  0
 37 71  1  0
M  END
$$$$

     RDKit          3D

 69 72  0  0  0  0  0  0  0  0999 V2000
   -5.8260   -3.0642    0.7722 C   0  0  0  0  0  0  0  0  0  0  0  0
   -5.1404   -1.8801    1.4507 C   0  0  0  0  0  0  0  0  0  0  0  0
   -3.7377   -1.6730    0.9096 C   0  0  0  0  0  0  0  0  0  0  0  0
   -2.6954   -2.1269    1.6579 N   0  0  0  0  0  0  0  0  0  0  0  0
   -1.4026   -2.0091    1.2642 C   0  0  0  0  0  0  0  0  0  0  0  0
   -0.4951   -2.4571    2.0171 O   0  0  0  0  0  0  0  0  0  0  0  0
   -1.0732   -1.4019    0.0363 C   0  0  0  0  0  0  0  0  0  0  0  0
    0.4030   -1.3201   -0.3467 C   0  0  0  0  0  0  0  0  0  0  0  0
    1.1048   -0.1880    0.3830 C   0  0  0  0  0  0  0  0  0  0  0  0
    0.7290    1.1310    0.0683 C   0  0  0  0  0  0  0  0  0  0  0  0
    1.3689    2.2212    0.6625 C   0  0  0  0  0  0  0  0  0  0  0  0
    1.0086    3.5399    0.3460 C   0  0  0  0  0  0  0  0  0  0  0  0
    1.6745    4.6196    0.9402 C   0  0  0  0  0  0  0  0  0  0  0  0
    1.2874    5.9195    0.5813 O   0  0  0  0  0  0  0  0  0  0  0  0
    1.8978    7.1063    1.0786 C   0  0  0  0  0  0  0  0  0  0  0  0
    2.7040    4.3682    1.8690 C   0  0  0  0  0  0  0  0  0  0  0  0
    3.0606    3.0550    2.1890 C   0  0  0  0  0  0  0  0  0  0  0  0
    2.3989    1.9818    1.5859 C   0  0  0  0  0  0  0  0  0  0  0  0
    2.7535    0.7079    1.8856 N   0  0  0  0  0  0  0  0  0  0  0  0
    2.1539   -0.3815    1.3267 C   0  0  0  0  0  0  0  0  0  0  0  0
    2.6121   -1.6908    1.7194 N   0  0  0  0  0  0  0  0  0  0  0  0
    3.8368   -1.8833    2.4980 C   0  0  0  0  0  0  0  0  0  0  0  0
    5.0801   -1.6382    1.6356 C   0  0  0  0  0  0  0  0  0  0  0  0
    5.1873   -2.6290    0.5642 N   0  0  0  0  0  0  0  0  0  0  0  0
    6.2728   -2.6036   -0.3707 C   0  0  0  0  0  0  0  0  0  0  0  0
    6.4022   -3.6814   -1.3968 C   0  0  0  0  0  0  0  0  0  0  0  0
    7.0988   -1.6526   -0.3623 O   0  0  0  0  0  0  0  0  0  0  0  0
   -2.1321   -0.8869   -0.7703 C   0  0  0  0  0  0  0  0  0  0  0  0
   -1.8934   -0.2254   -1.9982 C   0  0  0  0  0  0  0  0  0  0  0  0
   -2.9470    0.2783   -2.7790 C   0  0  0  0  0  0  0  0  0  0  0  0
   -2.7243    0.9494   -3.9935 O   0  0  0  0  0  0  0  0  0  0  0  0
   -1.4415    1.2236   -4.5482 C   0  0  0  0  0  0  0  0  0  0  0  0
   -4.2643    0.1192   -2.3505 C   0  0  0  0  0  0  0  0  0  0  0  0
   -5.2926    0.6230   -3.1652 O   0  0  0  0  0  0  0  0  0  0  0  0
   -6.6828    0.5205   -2.8743 C   0  0  0  0  0  0  0  0  0  0  0  0
   -4.5250   -0.5276   -1.1333 C   0  0  0  0  0  0  0  0  0  0  0  0
   -3.4786   -1.0323   -0.3307 C   0  0  0  0  0  0  0  0  0  0  0  0
   -5.9204   -2.9015   -0.3214 H   0  0  0  0  0  0  0  0  0  0  0  0
   -5.2427   -3.9925    0.9505 H   0  0  0  0  0  0  0  0  0  0  0  0
   -6.8428   -3.1972    1.1975 H   0  0  0  0  0  0  0  0  0  0  0  0
   -5.7492   -0.9581    1.3509 H   0  0  0  0  0  0  0  0  0  0  0  0
   -5.1016   -2.0905    2.5415 H   0  0  0  0  0  0  0  0  0  0  0  0
   -2.8870   -2.5982    2.5720 H   0  0  0  0  0  0  0  0  0  0  0  0
    0.5688   -1.2069   -1.4321 H   0  0  0  0  0  0  0  0  0  0  0  0
    0.8675   -2.3034   -0.1593 H   0  0  0  0  0  0  0  0  0  0  0  0
   -0.0587    1.3134   -0.6489 H   0  0  0  0  0  0  0  0  0  0  0  0
    0.2159    3.7342   -0.3670 H   0  0  0  0  0  0  0  0  0  0  0  0
    1.7779    7.1642    2.1810 H   0  0  0  0  0  0  0  0  0  0  0  0
    2.9752    7.1219    0.8090 H   0  0  0  0  0  0  0  0  0  0  0  0
    1.4040    7.9887    0.6225 H   0  0  0  0  0  0  0  0  0  0  0  0
    3.2348    5.1793    2.3482 H   0  0  0  0  0  0  0  0  0  0  0  0
    3.8549    2.8741    2.9027 H   0  0  0  0  0  0  0  0  0  0  0  0
    2.0337   -2.5412    1.5594 H   0  0  0  0  0  0  0  0  0  0  0  0
    3.8657   -2.9220    2.8940 H   0  0  0  0  0  0  0  0  0  0  0  0
    3.8418   -1.1963    3.3721 H   0  0  0  0  0  0  0  0  0  0  0  0
    5.9818   -1.7033    2.2831 H   0  0  0  0  0  0  0  0  0  0  0  0
    5.0439   -0.6182    1.1966 H   0  0  0  0  0  0  0  0  0  0  0  0
    4.4769   -3.3923    0.4839 H   0  0  0  0  0  0  0  0  0  0  0  0
    6.1646   -4.6654   -0.9414 H   0  0  0  0  0  0  0  0  0  0  0  0
    7.4399   -3.7171   -1.7931 H   0  0  0  0  0  0  0  0  0  0  0  0
    5.6993   -3.4848   -2.2325 H   0  0  0  0  0  0  0  0  0  0  0  0
   -0.8961   -0.0711   -2.3623 H   0  0  0  0  0  0  0  0  0  0  0  0
   -0.8505    1.8546   -3.8507 H   0  0  0  0  0  0  0  0  0  0  0  0
   -1.5706    1.7745   -5.5025 H   0  0  0  0  0  0  0  0  0  0  0  0
   -0.9040    0.2746   -4.7576 H   0  0  0  0  0  0  0  0  0  0  0  0
   -6.9807   -0.5473   -2.8023 H   0  0  0  0  0  0  0  0  0  0  0  0
   -6.9145    1.0478   -1.9248 H   0  0  0  0  0  0  0  0  0  0  0  0
   -7.2601    0.9972   -3.6929 H   0  0  0  0  0  0  0  0  0  0  0  0
   -5.5508   -0.6285   -0.8223 H   0  0  0  0  0  0  0  0  0  0  0  0
  1  2  1  0
  2  3  1  0
  3  4  1  0
  4  5  1  0
  5  6  2  0
  5  7  1  0
  7  8  1  0
  8  9  1  0
  9 10  2  0
 10 11  1  0
 11 12  2  0
 12 13  1  0
 13 14  1  0
 14 15  1  0
 13 16  2  0
 16 17  1  0
 17 18  2  0
 18 19  1  0
 19 20  2  0
 20 21  1  0
 21 22  1  0
 22 23  1  0
 23 24  1  0
 24 25  1  0
 25 26  1  0
 25 27  2  0
  7 28  2  0
 28 29  1  0
 29 30  2  0
 30 31  1  0
 31 32  1  0
 30 33  1  0
 33 34  1  0
 34 35  1  0
 33 36  2  0
 36 37  1  0
 37  3  2  0
 20  9  1  0
 37 28  1  0
 18 11  1  0
  1 38  1  0
  1 39  1  0
  1 40  1  0
  2 41  1  0
  2 42  1  0
  4 43  1  0
  8 44  1  0
  8 45  1  0
 10 46  1  0
 12 47  1  0
 15 48  1  0
 15 49  1  0
 15 50  1  0
 16 51  1  0
 17 52  1  0
 21 53  1  0
 22 54  1  0
 22 55  1  0
 23 56  1  0
 23 57  1  0
 24 58  1  0
 26 59  1  0
 26 60  1  0
 26 61  1  0
 29 62  1  0
 32 63  1  0
 32 64  1  0
 32 65  1  0
 35 66  1  0
 35 67  1  0
 35 68  1  0
 36 69  1  0
M  END
$$$$

     RDKit          3D

 51 54  0  0  0  0  0  0  0  0999 V2000
    4.5459   -1.9697    1.7428 C   0  0  0  0  0  0  0  0  0  0  0  0
    4.2169   -2.0731    0.3162 N   0  0  0  0  0  0  0  0  0  0  0  0
    4.4094   -3.3414   -0.3930 C   0  0  0  0  0  0  0  0  0  0  0  0
    3.6149   -0.9634   -0.3820 C   0  0  0  0  0  0  0  0  0  0  0  0
    3.0331   -1.1584   -1.4849 O   0  0  0  0  0  0  0  0  0  0  0  0
    3.6426    0.4092    0.1678 C   0  0  0  0  0  0  0  0  0  0  0  0
    4.8797    1.0162    0.4390 C   0  0  0  0  0  0  0  0  0  0  0  0
    4.9353    2.3244    0.9230 C   0  0  0  0  0  0  0  0  0  0  0  0
    6.1347    2.8994    1.1845 F   0  0  0  0  0  0  0  0  0  0  0  0
    3.7571    3.0409    1.1363 C   0  0  0  0  0  0  0  0  0  0  0  0
    2.5204    2.4540    0.8609 C   0  0  0  0  0  0  0  0  0  0  0  0
    2.4483    1.1420    0.3590 C   0  0  0  0  0  0  0  0  0  0  0  0
    1.1705    0.5245    0.1210 N   0  0  0  0  0  0  0  0  0  0  0  0
    0.0712    1.1917   -0.5209 C   0  0  0  0  0  0  0  0  0  0  0  0
    0.2175    2.3570   -0.9770 O   0  0  0  0  0  0  0  0  0  0  0  0
   -1.1933    0.4627   -0.7461 C   0  0  0  0  0  0  0  0  0  0  0  0
   -1.1156   -0.8437   -1.1176 N   0  0  0  0  0  0  0  0  0  0  0  0
   -2.2116   -1.6091   -1.3576 C   0  0  0  0  0  0  0  0  0  0  0  0
   -1.9841   -3.0474   -1.7746 C   0  0  0  0  0  0  0  0  0  0  0  0
   -2.9592   -3.6402   -2.7820 C   0  0  0  0  0  0  0  0  0  0  0  0
   -3.0079   -4.0796   -1.3237 C   0  0  0  0  0  0  0  0  0  0  0  0
   -3.4779   -1.0189   -1.2120 C   0  0  0  0  0  0  0  0  0  0  0  0
   -3.5695    0.2775   -0.8241 N   0  0  0  0  0  0  0  0  0  0  0  0
   -2.4716    1.0421   -0.5736 C   0  0  0  0  0  0  0  0  0  0  0  0
   -2.6451    2.3996   -0.1254 N   0  0  0  0  0  0  0  0  0  0  0  0
   -3.8200    2.8600    0.5644 C   0  0  0  0  0  0  0  0  0  0  0  0
   -4.2309    4.1911    0.4389 C   0  0  0  0  0  0  0  0  0  0  0  0
   -5.3279    4.6316    1.1073 N   0  0  0  0  0  0  0  0  0  0  0  0
   -6.0344    3.7996    1.9145 C   0  0  0  0  0  0  0  0  0  0  0  0
   -5.6422    2.5095    2.0717 N   0  0  0  0  0  0  0  0  0  0  0  0
   -4.5534    2.0260    1.4211 C   0  0  0  0  0  0  0  0  0  0  0  0
    5.4074   -1.2876    1.8877 H   0  0  0  0  0  0  0  0  0  0  0  0
    4.8153   -2.9564    2.1729 H   0  0  0  0  0  0  0  0  0  0  0  0
    3.6692   -1.5825    2.3036 H   0  0  0  0  0  0  0  0  0  0  0  0
    3.4257   -3.7478   -0.7095 H   0  0  0  0  0  0  0  0  0  0  0  0
    4.9127   -4.0976    0.2452 H   0  0  0  0  0  0  0  0  0  0  0  0
    5.0422   -3.1745   -1.2898 H   0  0  0  0  0  0  0  0  0  0  0  0
    5.8034    0.4782    0.2617 H   0  0  0  0  0  0  0  0  0  0  0  0
    3.8001    4.0519    1.5219 H   0  0  0  0  0  0  0  0  0  0  0  0
    1.6187    3.0154    1.0657 H   0  0  0  0  0  0  0  0  0  0  0  0
    1.0595   -0.4850    0.3658 H   0  0  0  0  0  0  0  0  0  0  0  0
   -0.9416   -3.4256   -1.8550 H   0  0  0  0  0  0  0  0  0  0  0  0
   -3.8093   -3.0019   -3.0990 H   0  0  0  0  0  0  0  0  0  0  0  0
   -2.5128   -4.3968   -3.4607 H   0  0  0  0  0  0  0  0  0  0  0  0
   -2.5886   -5.0927   -1.1486 H   0  0  0  0  0  0  0  0  0  0  0  0
   -3.8864   -3.7074   -0.7577 H   0  0  0  0  0  0  0  0  0  0  0  0
   -4.3893   -1.5689   -1.3942 H   0  0  0  0  0  0  0  0  0  0  0  0
   -1.9369    3.1202   -0.3814 H   0  0  0  0  0  0  0  0  0  0  0  0
   -3.6849    4.8754   -0.1973 H   0  0  0  0  0  0  0  0  0  0  0  0
   -6.9053    4.1674    2.4401 H   0  0  0  0  0  0  0  0  0  0  0  0
   -4.2518    1.0021    1.5922 H   0  0  0  0  0  0  0  0  0  0  0  0
  1  2  1  0
  2  3  1  0
  2  4  1  0
  4  5  2  0
  4  6  1  0
  6  7  2  0
  7  8  1  0
  8  9  1  0
  8 10  2  0
 10 11  1  0
 11 12  2  0
 12 13  1  0
 13 14  1  0
 14 15  2  0
 14 16  1  0
 16 17  2  0
 17 18  1  0
 18 19  1  0
 19 20  1  0
 20 21  1  0
 18 22  2  0
 22 23  1  0
 23 24  2  0
 24 25  1  0
 25 26  1  0
 26 27  2  0
 27 28  1  0
 28 29  2  0
 29 30  1  0
 30 31  2  0
 12  6  1  0
 24 16  1  0
 31 26  1  0
 21 19  1  0
  1 32  1  0
  1 33  1  0
  1 34  1  0
  3 35  1  0
  3 36  1  0
  3 37  1  0
  7 38  1  0
 10 39  1  0
 11 40  1  0
 13 41  1  0
 19 42  1  0
 20 43  1  0
 20 44  1  0
 21 45  1  0
 21 46  1  0
 22 47  1  0
 25 48  1  0
 27 49  1  0
 29 50  1  0
 31 51  1  0
M  END
$$$$

     RDKit          3D

 41 44  0  0  0  0  0  0  0  0999 V2000
   -5.4416   -2.5167   -1.3629 C   0  0  0  0  0  0  0  0  0  0  0  0
   -5.5575   -1.1787   -0.7923 N   0  0  0  0  0  0  0  0  0  0  0  0
   -6.7016   -0.6673   -0.3662 N   0  0  0  0  0  0  0  0  0  0  0  0
   -6.4483    0.5607    0.1265 C   0  0  0  0  0  0  0  0  0  0  0  0
   -5.0962    0.8365    0.0095 C   0  0  0  0  0  0  0  0  0  0  0  0
   -4.4330    2.1171    0.3302 C   0  0  0  0  0  0  0  0  0  0  0  0
   -3.3114    2.3911   -0.1715 O   0  0  0  0  0  0  0  0  0  0  0  0
   -5.0419    3.0510    1.1654 O   0  0  0  0  0  0  0  0  0  0  0  0
   -4.5549   -0.2997   -0.5774 C   0  0  0  0  0  0  0  0  0  0  0  0
   -3.1339   -0.5606   -0.8783 C   0  0  0  0  0  0  0  0  0  0  0  0
   -2.8234   -1.0378   -2.0024 O   0  0  0  0  0  0  0  0  0  0  0  0
   -2.1206   -0.2743    0.1003 N   0  0  0  0  0  0  0  0  0  0  0  0
   -0.7205   -0.5361   -0.0882 C   0  0  0  0  0  0  0  0  0  0  0  0
   -0.2617   -1.7056   -0.7463 C   0  0  0  0  0  0  0  0  0  0  0  0
    1.1141   -1.9491   -0.8930 C   0  0  0  0  0  0  0  0  0  0  0  0
    1.9924   -1.0130   -0.3575 C   0  0  0  0  0  0  0  0  0  0  0  0
    3.3358   -1.0616   -0.3844 N   0  0  0  0  0  0  0  0  0  0  0  0
    3.6595    0.0801    0.2825 C   0  0  0  0  0  0  0  0  0  0  0  0
    5.0513    0.5109    0.5351 C   0  0  0  0  0  0  0  0  0  0  0  0
    5.3137    1.7041    1.2329 C   0  0  0  0  0  0  0  0  0  0  0  0
    6.6311    2.1090    1.4703 C   0  0  0  0  0  0  0  0  0  0  0  0
    7.6969    1.3294    1.0149 C   0  0  0  0  0  0  0  0  0  0  0  0
    7.4477    0.1430    0.3211 C   0  0  0  0  0  0  0  0  0  0  0  0
    6.1323   -0.2666    0.0809 C   0  0  0  0  0  0  0  0  0  0  0  0
    2.5728    0.7811    0.6928 N   0  0  0  0  0  0  0  0  0  0  0  0
    1.5431    0.0722    0.2776 N   0  0  0  0  0  0  0  0  0  0  0  0
    0.2284    0.3553    0.4475 C   0  0  0  0  0  0  0  0  0  0  0  0
   -6.4308   -3.0221   -1.3610 H   0  0  0  0  0  0  0  0  0  0  0  0
   -5.0805   -2.4495   -2.4103 H   0  0  0  0  0  0  0  0  0  0  0  0
   -4.7301   -3.1214   -0.7621 H   0  0  0  0  0  0  0  0  0  0  0  0
   -7.2113    1.2210    0.5154 H   0  0  0  0  0  0  0  0  0  0  0  0
   -5.9304    2.8693    1.6148 H   0  0  0  0  0  0  0  0  0  0  0  0
   -2.4057    0.2113    0.9805 H   0  0  0  0  0  0  0  0  0  0  0  0
   -0.9614   -2.4413   -1.1186 H   0  0  0  0  0  0  0  0  0  0  0  0
    1.4759   -2.8384   -1.3929 H   0  0  0  0  0  0  0  0  0  0  0  0
    4.5028    2.3237    1.5948 H   0  0  0  0  0  0  0  0  0  0  0  0
    6.8254    3.0281    2.0078 H   0  0  0  0  0  0  0  0  0  0  0  0
    8.7158    1.6446    1.1997 H   0  0  0  0  0  0  0  0  0  0  0  0
    8.2745   -0.4602   -0.0313 H   0  0  0  0  0  0  0  0  0  0  0  0
    5.9623   -1.1897   -0.4590 H   0  0  0  0  0  0  0  0  0  0  0  0
   -0.0791    1.2503    0.9745 H   0  0  0  0  0  0  0  0  0  0  0  0
  1  2  1  0
  2  3  1  0
  3  4  2  0
  4  5  1  0
  5  6  1  0
  6  7  2  0
  6  8  1  0
  5  9  2  0
  9 10  1  0
 10 11  2  0
 10 12  1  0
 12 13  1  0
 13 14  1  0
 14 15  2  0
 15 16  1  0
 16 17  2  0
 17 18  1  0
 18 19  1  0
 19 20  2  0
 20 21  1  0
 21 22  2  0
 22 23  1  0
 23 24  2  0
 18 25  2  0
 25 26  1  0
 26 27  1  0
  9  2  1  0
 27 13  2  0
 26 16  1  0
 24 19  1  0
  1 28  1  0
  1 29  1  0
  1 30  1  0
  4 31  1  0
  8 32  1  0
 12 33  1  0
 14 34  1  0
 15 35  1  0
 20 36  1  0
 21 37  1  0
 22 38  1  0
 23 39  1  0
 24 40  1  0
 27 41  1  0
M  END
$$$$

     RDKit          3D

 51 54  0  0  0  0  0  0  0  0999 V2000
    3.5631   -1.9556    3.8316 C   0  0  0  0  0  0  0  0  0  0  0  0
    3.7720   -1.3363    2.5296 N   0  0  0  0  0  0  0  0  0  0  0  0
    2.9673   -1.6816    1.3930 C   0  0  0  0  0  0  0  0  0  0  0  0
    2.0361   -2.5216    1.5204 O   0  0  0  0  0  0  0  0  0  0  0  0
    3.2297   -1.0605    0.0725 C   0  0  0  0  0  0  0  0  0  0  0  0
    4.5617   -0.8814   -0.3428 C   0  0  0  0  0  0  0  0  0  0  0  0
    4.8621   -0.2797   -1.5757 C   0  0  0  0  0  0  0  0  0  0  0  0
    6.2979   -0.0624   -1.9838 C   0  0  0  0  0  0  0  0  0  0  0  0
    6.4127    0.0278   -3.3607 F   0  0  0  0  0  0  0  0  0  0  0  0
    7.0878   -1.1145   -1.5535 F   0  0  0  0  0  0  0  0  0  0  0  0
    6.7600    1.1101   -1.4162 F   0  0  0  0  0  0  0  0  0  0  0  0
    3.8126    0.1941   -2.3766 C   0  0  0  0  0  0  0  0  0  0  0  0
    2.4873    0.0248   -1.9765 C   0  0  0  0  0  0  0  0  0  0  0  0
    2.1805   -0.6020   -0.7594 C   0  0  0  0  0  0  0  0  0  0  0  0
    0.8054   -0.7519   -0.3737 N   0  0  0  0  0  0  0  0  0  0  0  0
   -0.1030    0.3592   -0.3059 C   0  0  0  0  0  0  0  0  0  0  0  0
    0.3304    1.5322   -0.4715 O   0  0  0  0  0  0  0  0  0  0  0  0
   -1.5299    0.1330    0.0217 C   0  0  0  0  0  0  0  0  0  0  0  0
   -1.8709   -1.0079    0.6805 N   0  0  0  0  0  0  0  0  0  0  0  0
   -3.1501   -1.2769    1.0513 C   0  0  0  0  0  0  0  0  0  0  0  0
   -3.4680   -2.5307    1.8106 C   0  0  0  0  0  0  0  0  0  0  0  0
   -2.8618   -3.8066    1.2429 C   0  0  0  0  0  0  0  0  0  0  0  0
   -4.3409   -3.5202    1.0527 C   0  0  0  0  0  0  0  0  0  0  0  0
   -4.1462   -0.3385    0.7783 C   0  0  0  0  0  0  0  0  0  0  0  0
   -3.8233    0.8002    0.1152 N   0  0  0  0  0  0  0  0  0  0  0  0
   -2.5471    1.0700   -0.2753 C   0  0  0  0  0  0  0  0  0  0  0  0
   -2.2827    2.2500   -1.0512 N   0  0  0  0  0  0  0  0  0  0  0  0
   -2.9860    3.4905   -0.8679 C   0  0  0  0  0  0  0  0  0  0  0  0
   -3.5504    3.8503    0.3652 C   0  0  0  0  0  0  0  0  0  0  0  0
   -4.1806    5.0458    0.5017 N   0  0  0  0  0  0  0  0  0  0  0  0
   -4.2714    5.9111   -0.5407 C   0  0  0  0  0  0  0  0  0  0  0  0
   -3.7176    5.5929   -1.7387 N   0  0  0  0  0  0  0  0  0  0  0  0
   -3.0752    4.4098   -1.9191 C   0  0  0  0  0  0  0  0  0  0  0  0
    3.7407   -3.0494    3.7588 H   0  0  0  0  0  0  0  0  0  0  0  0
    2.5242   -1.7704    4.1770 H   0  0  0  0  0  0  0  0  0  0  0  0
    4.2701   -1.5262    4.5720 H   0  0  0  0  0  0  0  0  0  0  0  0
    4.5037   -0.5969    2.4426 H   0  0  0  0  0  0  0  0  0  0  0  0
    5.3706   -1.2243    0.2913 H   0  0  0  0  0  0  0  0  0  0  0  0
    4.0153    0.6940   -3.3153 H   0  0  0  0  0  0  0  0  0  0  0  0
    1.6929    0.3818   -2.6200 H   0  0  0  0  0  0  0  0  0  0  0  0
    0.4519   -1.7110   -0.1640 H   0  0  0  0  0  0  0  0  0  0  0  0
   -3.6154   -2.5009    2.9108 H   0  0  0  0  0  0  0  0  0  0  0  0
   -2.6484   -4.5905    1.9999 H   0  0  0  0  0  0  0  0  0  0  0  0
   -2.2616   -3.6981    0.3130 H   0  0  0  0  0  0  0  0  0  0  0  0
   -5.0040   -4.1358    1.6955 H   0  0  0  0  0  0  0  0  0  0  0  0
   -4.6123   -3.2394    0.0119 H   0  0  0  0  0  0  0  0  0  0  0  0
   -5.1710   -0.5130    1.0800 H   0  0  0  0  0  0  0  0  0  0  0  0
   -1.6260    2.1701   -1.8612 H   0  0  0  0  0  0  0  0  0  0  0  0
   -3.4747    3.1958    1.2226 H   0  0  0  0  0  0  0  0  0  0  0  0
   -4.7786    6.8578   -0.4145 H   0  0  0  0  0  0  0  0  0  0  0  0
   -2.6389    4.1831   -2.8834 H   0  0  0  0  0  0  0  0  0  0  0  0
  1  2  1  0
  2  3  1  0
  3  4  2  0
  3  5  1  0
  5  6  2  0
  6  7  1  0
  7  8  1  0
  8  9  1  0
  8 10  1  0
  8 11  1  0
  7 12  2  0
 12 13  1  0
 13 14  2  0
 14 15  1  0
 15 16  1  0
 16 17  2  0
 16 18  1  0
 18 19  2  0
 19 20  1  0
 20 21  1  0
 21 22  1  0
 22 23  1  0
 20 24  2  0
 24 25  1  0
 25 26  2  0
 26 27  1  0
 27 28  1  0
 28 29  2  0
 29 30  1  0
 30 31  2  0
 31 32  1  0
 32 33  2  0
 14  5  1  0
 26 18  1  0
 33 28  1  0
 23 21  1  0
  1 34  1  0
  1 35  1  0
  1 36  1  0
  2 37  1  0
  6 38  1  0
 12 39  1  0
 13 40  1  0
 15 41  1  0
 21 42  1  0
 22 43  1  0
 22 44  1  0
 23 45  1  0
 23 46  1  0
 24 47  1  0
 27 48  1  0
 29 49  1  0
 31 50  1  0
 33 51  1  0
M  END
$$$$

     RDKit          3D

 71 75  0  0  0  0  0  0  0  0999 V2000
   -8.5699    2.7493    1.2942 C   0  0  0  0  0  0  0  0  0  0  0  0
   -7.4746    1.8850    1.9095 C   0  0  0  0  0  0  0  0  0  0  0  0
   -7.8858    0.4801    1.9175 N   0  0  0  0  0  0  0  0  0  0  0  0
   -7.1819   -0.5661    1.2312 C   0  0  0  0  0  0  0  0  0  0  0  0
   -7.8013   -1.6242    0.9425 O   0  0  0  0  0  0  0  0  0  0  0  0
   -5.7877   -0.4287    0.9064 N   0  0  0  0  0  0  0  0  0  0  0  0
   -5.1212   -1.1691   -0.1304 C   0  0  0  0  0  0  0  0  0  0  0  0
   -5.6337   -2.6596   -0.7585 S   0  0  0  0  0  0  0  0  0  0  0  0
   -4.3103   -2.8436   -1.7655 C   0  0  0  0  0  0  0  0  0  0  0  0
   -4.0735   -3.8767   -2.6113 N   0  0  0  0  0  0  0  0  0  0  0  0
   -2.9510   -3.8678   -3.3855 C   0  0  0  0  0  0  0  0  0  0  0  0
   -2.0475   -2.7911   -3.3174 C   0  0  0  0  0  0  0  0  0  0  0  0
   -2.3003   -1.7221   -2.4440 C   0  0  0  0  0  0  0  0  0  0  0  0
   -3.4475   -1.7664   -1.6419 C   0  0  0  0  0  0  0  0  0  0  0  0
   -3.8889   -0.8114   -0.7037 C   0  0  0  0  0  0  0  0  0  0  0  0
   -3.1696    0.4413   -0.3878 C   0  0  0  0  0  0  0  0  0  0  0  0
   -3.8229    1.5141   -0.2908 O   0  0  0  0  0  0  0  0  0  0  0  0
   -1.7444    0.4536   -0.1823 N   0  0  0  0  0  0  0  0  0  0  0  0
   -0.9943    1.6904   -0.4405 C   0  0  0  0  0  0  0  0  0  0  0  0
    0.4109    1.3641   -0.9523 C   0  0  0  0  0  0  0  0  0  0  0  0
    1.1229    0.3910    0.0162 C   0  0  0  0  0  0  0  0  0  0  0  0
    2.5270    0.0741   -0.3645 N   0  0  0  0  0  0  0  0  0  0  0  0
    2.7116   -0.3191   -1.7792 C   0  0  0  0  0  0  0  0  0  0  0  0
    4.1210   -0.8801   -1.9861 C   0  0  0  0  0  0  0  0  0  0  0  0
    5.1778    0.1548   -1.5764 C   0  0  0  0  0  0  0  0  0  0  0  0
    4.9221    0.6905   -0.1473 C   0  0  0  0  0  0  0  0  0  0  0  0
    3.4576    1.1679   -0.0099 C   0  0  0  0  0  0  0  0  0  0  0  0
    5.2952   -0.3500    0.9486 C   0  0  0  0  0  0  0  0  0  0  0  0
    6.4047    0.3002    1.8310 C   0  0  0  0  0  0  0  0  0  0  0  0
    5.9273    0.4978    3.2775 C   0  0  0  0  0  0  0  0  0  0  0  0
    7.7004   -0.5245    1.8024 C   0  0  0  0  0  0  0  0  0  0  0  0
    6.6557    1.5689    1.2510 O   0  0  0  0  0  0  0  0  0  0  0  0
    5.8545    1.8086    0.1590 C   0  0  0  0  0  0  0  0  0  0  0  0
    5.9154    2.8816   -0.4989 O   0  0  0  0  0  0  0  0  0  0  0  0
    0.2932   -0.8968    0.1806 C   0  0  0  0  0  0  0  0  0  0  0  0
   -1.1223   -0.5694    0.6720 C   0  0  0  0  0  0  0  0  0  0  0  0
   -8.2677    3.8175    1.3357 H   0  0  0  0  0  0  0  0  0  0  0  0
   -9.5236    2.6263    1.8526 H   0  0  0  0  0  0  0  0  0  0  0  0
   -8.7266    2.4618    0.2316 H   0  0  0  0  0  0  0  0  0  0  0  0
   -6.5461    2.0397    1.3211 H   0  0  0  0  0  0  0  0  0  0  0  0
   -7.2883    2.2143    2.9527 H   0  0  0  0  0  0  0  0  0  0  0  0
   -8.7809    0.2356    2.3978 H   0  0  0  0  0  0  0  0  0  0  0  0
   -5.2269    0.2657    1.4450 H   0  0  0  0  0  0  0  0  0  0  0  0
   -2.7579   -4.6926   -4.0591 H   0  0  0  0  0  0  0  0  0  0  0  0
   -1.1620   -2.7855   -3.9423 H   0  0  0  0  0  0  0  0  0  0  0  0
   -1.6174   -0.8854   -2.4116 H   0  0  0  0  0  0  0  0  0  0  0  0
   -1.5117    2.3071   -1.2090 H   0  0  0  0  0  0  0  0  0  0  0  0
   -0.9282    2.2870    0.4963 H   0  0  0  0  0  0  0  0  0  0  0  0
    0.9848    2.3109   -1.0415 H   0  0  0  0  0  0  0  0  0  0  0  0
    0.3129    0.9139   -1.9641 H   0  0  0  0  0  0  0  0  0  0  0  0
    1.1309    0.8714    1.0224 H   0  0  0  0  0  0  0  0  0  0  0  0
    2.5662    0.5513   -2.4572 H   0  0  0  0  0  0  0  0  0  0  0  0
    1.9885   -1.1079   -2.0702 H   0  0  0  0  0  0  0  0  0  0  0  0
    4.2403   -1.8087   -1.3867 H   0  0  0  0  0  0  0  0  0  0  0  0
    4.2588   -1.1447   -3.0568 H   0  0  0  0  0  0  0  0  0  0  0  0
    5.1432    0.9949   -2.3051 H   0  0  0  0  0  0  0  0  0  0  0  0
    6.1897   -0.2997   -1.6443 H   0  0  0  0  0  0  0  0  0  0  0  0
    3.2854    2.0505   -0.6661 H   0  0  0  0  0  0  0  0  0  0  0  0
    3.2876    1.4974    1.0397 H   0  0  0  0  0  0  0  0  0  0  0  0
    4.4073   -0.6320    1.5580 H   0  0  0  0  0  0  0  0  0  0  0  0
    5.6598   -1.2980    0.4946 H   0  0  0  0  0  0  0  0  0  0  0  0
    6.7065    1.0200    3.8718 H   0  0  0  0  0  0  0  0  0  0  0  0
    5.0045    1.1176    3.2957 H   0  0  0  0  0  0  0  0  0  0  0  0
    5.7123   -0.4831    3.7533 H   0  0  0  0  0  0  0  0  0  0  0  0
    8.0631   -0.6289    0.7563 H   0  0  0  0  0  0  0  0  0  0  0  0
    8.4915   -0.0172    2.3953 H   0  0  0  0  0  0  0  0  0  0  0  0
    7.5304   -1.5376    2.2256 H   0  0  0  0  0  0  0  0  0  0  0  0
    0.2140   -1.4433   -0.7809 H   0  0  0  0  0  0  0  0  0  0  0  0
    0.7883   -1.5681    0.9153 H   0  0  0  0  0  0  0  0  0  0  0  0
   -1.7204   -1.5054    0.6787 H   0  0  0  0  0  0  0  0  0  0  0  0
   -1.0763   -0.1913    1.7164 H   0  0  0  0  0  0  0  0  0  0  0  0
  1  2  1  0
  2  3  1  0
  3  4  1  0
  4  5  2  0
  4  6  1  0
  6  7  1  0
  7  8  1  0
  8  9  1  0
  9 10  2  0
 10 11  1  0
 11 12  2  0
 12 13  1  0
 13 14  2  0
 14 15  1  0
 15 16  1  0
 16 17  2  0
 16 18  1  0
 18 19  1  0
 19 20  1  0
 20 21  1  0
 21 22  1  0
 22 23  1  0
 23 24  1  0
 24 25  1  0
 25 26  1  0
 26 27  1  0
 26 28  1  0
 28 29  1  0
 29 30  1  0
 29 31  1  0
 29 32  1  0
 32 33  1  0
 33 34  2  0
 21 35  1  0
 35 36  1  0
 15  7  2  0
 36 18  1  0
 14  9  1  0
 27 22  1  0
 33 26  1  0
  1 37  1  0
  1 38  1  0
  1 39  1  0
  2 40  1  0
  2 41  1  0
  3 42  1  0
  6 43  1  0
 11 44  1  0
 12 45  1  0
 13 46  1  0
 19 47  1  0
 19 48  1  0
 20 49  1  0
 20 50  1  0
 21 51  1  0
 23 52  1  0
 23 53  1  0
 24 54  1  0
 24 55  1  0
 25 56  1  0
 25 57  1  0
 27 58  1  0
 27 59  1  0
 28 60  1  0
 28 61  1  0
 30 62  1  0
 30 63  1  0
 30 64  1  0
 31 65  1  0
 31 66  1  0
 31 67  1  0
 35 68  1  0
 35 69  1  0
 36 70  1  0
 36 71  1  0
M  END
$$$$

     RDKit          3D

 58 61  0  0  0  0  0  0  0  0999 V2000
    5.5568   -1.9644    3.3695 C   0  0  0  0  0  0  0  0  0  0  0  0
    5.3110   -1.5331    1.9100 C   0  0  0  0  0  0  0  0  0  0  0  0
    6.3843   -2.1630    0.9976 C   0  0  0  0  0  0  0  0  0  0  0  0
    5.3677   -0.1278    1.8183 O   0  0  0  0  0  0  0  0  0  0  0  0
    3.9004   -1.9939    1.4809 C   0  0  0  0  0  0  0  0  0  0  0  0
    3.5821   -1.5340    0.1278 N   0  0  0  0  0  0  0  0  0  0  0  0
    2.7461   -0.3963   -0.1336 C   0  0  0  0  0  0  0  0  0  0  0  0
    2.1827    0.2074    0.8200 O   0  0  0  0  0  0  0  0  0  0  0  0
    2.5425    0.0829   -1.5196 C   0  0  0  0  0  0  0  0  0  0  0  0
    1.2583    0.4678   -1.9754 C   0  0  0  0  0  0  0  0  0  0  0  0
    0.1008    0.2907   -1.1396 N   0  0  0  0  0  0  0  0  0  0  0  0
   -0.9401    1.2737   -1.0145 C   0  0  0  0  0  0  0  0  0  0  0  0
   -0.8023    2.4085   -1.5455 O   0  0  0  0  0  0  0  0  0  0  0  0
   -2.1153    0.9906   -0.1650 C   0  0  0  0  0  0  0  0  0  0  0  0
   -1.9056    0.3229    1.0017 N   0  0  0  0  0  0  0  0  0  0  0  0
   -2.9054    0.0220    1.8702 C   0  0  0  0  0  0  0  0  0  0  0  0
   -2.5338   -0.7237    3.1351 C   0  0  0  0  0  0  0  0  0  0  0  0
   -3.3198   -0.3960    4.3969 C   0  0  0  0  0  0  0  0  0  0  0  0
   -3.5473   -1.7210    3.6791 C   0  0  0  0  0  0  0  0  0  0  0  0
   -4.2112    0.4240    1.5435 C   0  0  0  0  0  0  0  0  0  0  0  0
   -4.4371    1.0725    0.3739 N   0  0  0  0  0  0  0  0  0  0  0  0
   -3.4389    1.3607   -0.5054 C   0  0  0  0  0  0  0  0  0  0  0  0
   -3.7608    2.0089   -1.7521 N   0  0  0  0  0  0  0  0  0  0  0  0
   -5.0819    2.0308   -2.3198 C   0  0  0  0  0  0  0  0  0  0  0  0
   -5.4945    3.1244   -3.0893 C   0  0  0  0  0  0  0  0  0  0  0  0
   -6.7315    3.1366   -3.6499 N   0  0  0  0  0  0  0  0  0  0  0  0
   -7.5818    2.0901   -3.4884 C   0  0  0  0  0  0  0  0  0  0  0  0
   -7.1962    1.0050   -2.7691 N   0  0  0  0  0  0  0  0  0  0  0  0
   -5.9689    0.9508   -2.1898 C   0  0  0  0  0  0  0  0  0  0  0  0
    1.1063    0.9474   -3.2884 C   0  0  0  0  0  0  0  0  0  0  0  0
    2.2102    1.0641   -4.1331 C   0  0  0  0  0  0  0  0  0  0  0  0
    3.4781    0.6973   -3.6826 C   0  0  0  0  0  0  0  0  0  0  0  0
    4.5480    0.8214   -4.5068 F   0  0  0  0  0  0  0  0  0  0  0  0
    3.6484    0.2096   -2.3840 C   0  0  0  0  0  0  0  0  0  0  0  0
    4.9006   -0.0962   -1.9577 F   0  0  0  0  0  0  0  0  0  0  0  0
    6.5638   -1.6390    3.7085 H   0  0  0  0  0  0  0  0  0  0  0  0
    4.7996   -1.5057    4.0438 H   0  0  0  0  0  0  0  0  0  0  0  0
    5.4941   -3.0702    3.4663 H   0  0  0  0  0  0  0  0  0  0  0  0
    7.4005   -1.8886    1.3501 H   0  0  0  0  0  0  0  0  0  0  0  0
    6.2998   -3.2719    0.9976 H   0  0  0  0  0  0  0  0  0  0  0  0
    6.2791   -1.7975   -0.0464 H   0  0  0  0  0  0  0  0  0  0  0  0
    6.2770    0.1617    2.0920 H   0  0  0  0  0  0  0  0  0  0  0  0
    3.8310   -3.1030    1.5102 H   0  0  0  0  0  0  0  0  0  0  0  0
    3.1469   -1.6096    2.2037 H   0  0  0  0  0  0  0  0  0  0  0  0
    3.9498   -2.0879   -0.6779 H   0  0  0  0  0  0  0  0  0  0  0  0
    0.0413   -0.5744   -0.5567 H   0  0  0  0  0  0  0  0  0  0  0  0
   -1.4702   -0.9991    3.3040 H   0  0  0  0  0  0  0  0  0  0  0  0
   -2.7374   -0.4935    5.3373 H   0  0  0  0  0  0  0  0  0  0  0  0
   -4.1523    0.3306    4.3003 H   0  0  0  0  0  0  0  0  0  0  0  0
   -3.0981   -2.5928    4.2002 H   0  0  0  0  0  0  0  0  0  0  0  0
   -4.5187   -1.7966    3.1490 H   0  0  0  0  0  0  0  0  0  0  0  0
   -5.0504    0.2233    2.1928 H   0  0  0  0  0  0  0  0  0  0  0  0
   -3.0340    2.5676   -2.2491 H   0  0  0  0  0  0  0  0  0  0  0  0
   -4.8354    3.9707   -3.2353 H   0  0  0  0  0  0  0  0  0  0  0  0
   -8.5630    2.1162   -3.9420 H   0  0  0  0  0  0  0  0  0  0  0  0
   -5.6822    0.0575   -1.6526 H   0  0  0  0  0  0  0  0  0  0  0  0
    0.1266    1.2068   -3.6689 H   0  0  0  0  0  0  0  0  0  0  0  0
    2.0805    1.4344   -5.1420 H   0  0  0  0  0  0  0  0  0  0  0  0
  1  2  1  0
  2  3  1  0
  2  4  1  0
  2  5  1  0
  5  6  1  0
  6  7  1  0
  7  8  2  0
  7  9  1  0
  9 10  2  0
 10 11  1  0
 11 12  1  0
 12 13  2  0
 12 14  1  0
 14 15  2  0
 15 16  1  0
 16 17  1  0
 17 18  1  0
 18 19  1  0
 16 20  2  0
 20 21  1  0
 21 22  2  0
 22 23  1  0
 23 24  1  0
 24 25  2  0
 25 26  1  0
 26 27  2  0
 27 28  1  0
 28 29  2  0
 10 30  1  0
 30 31  2  0
 31 32  1  0
 32 33  1  0
 32 34  2  0
 34 35  1  0
 34  9  1  0
 22 14  1  0
 29 24  1  0
 19 17  1  0
  1 36  1  0
  1 37  1  0
  1 38  1  0
  3 39  1  0
  3 40  1  0
  3 41  1  0
  4 42  1  0
  5 43  1  0
  5 44  1  0
  6 45  1  0
 11 46  1  0
 17 47  1  0
 18 48  1  0
 18 49  1  0
 19 50  1  0
 19 51  1  0
 20 52  1  0
 23 53  1  0
 25 54  1  0
 27 55  1  0
 29 56  1  0
 30 57  1  0
 31 58  1  0
M  END
$$$$

     RDKit          3D

 76 80  0  0  0  0  0  0  0  0999 V2000
   -9.1350    4.5867   -0.3588 C   0  0  0  0  0  0  0  0  0  0  0  0
   -8.3952    4.4631    0.9692 C   0  0  0  0  0  0  0  0  0  0  0  0
   -7.0738    3.8704    0.7697 N   0  0  0  0  0  0  0  0  0  0  0  0
   -6.8842    2.4772    0.4867 C   0  0  0  0  0  0  0  0  0  0  0  0
   -7.8771    1.6999    0.4553 O   0  0  0  0  0  0  0  0  0  0  0  0
   -5.5616    1.9817    0.2295 N   0  0  0  0  0  0  0  0  0  0  0  0
   -5.2195    0.5878    0.1305 C   0  0  0  0  0  0  0  0  0  0  0  0
   -6.1727   -0.7035    0.6867 S   0  0  0  0  0  0  0  0  0  0  0  0
   -5.0216   -1.8743    0.3514 C   0  0  0  0  0  0  0  0  0  0  0  0
   -5.1334   -3.2093    0.5643 N   0  0  0  0  0  0  0  0  0  0  0  0
   -4.0969   -4.0358    0.2369 C   0  0  0  0  0  0  0  0  0  0  0  0
   -4.2141   -5.5076    0.4794 C   0  0  0  0  0  0  0  0  0  0  0  0
   -2.9182   -3.5010   -0.3302 C   0  0  0  0  0  0  0  0  0  0  0  0
   -2.8113   -2.1183   -0.5479 C   0  0  0  0  0  0  0  0  0  0  0  0
   -3.8826   -1.2980   -0.1831 C   0  0  0  0  0  0  0  0  0  0  0  0
   -3.9752    0.1011   -0.3012 C   0  0  0  0  0  0  0  0  0  0  0  0
   -2.8855    0.9642   -0.7973 C   0  0  0  0  0  0  0  0  0  0  0  0
   -3.1303    1.7704   -1.7349 O   0  0  0  0  0  0  0  0  0  0  0  0
   -1.5597    0.8979   -0.2355 N   0  0  0  0  0  0  0  0  0  0  0  0
   -1.3535    0.5802    1.1833 C   0  0  0  0  0  0  0  0  0  0  0  0
   -0.1898   -0.4066    1.3599 C   0  0  0  0  0  0  0  0  0  0  0  0
    0.9887   -0.1977    0.3674 C   0  0  0  0  0  0  0  0  0  0  0  0
    2.2691   -0.4867    1.0840 N   0  0  0  0  0  0  0  0  0  0  0  0
    2.5817   -1.9301    1.1276 C   0  0  0  0  0  0  0  0  0  0  0  0
    3.0763   -2.4731   -0.2301 C   0  0  0  0  0  0  0  0  0  0  0  0
    3.6166   -1.3789   -1.1671 C   0  0  0  0  0  0  0  0  0  0  0  0
    4.3298   -0.2468   -0.4057 C   0  0  0  0  0  0  0  0  0  0  0  0
    3.4831    0.3123    0.7799 C   0  0  0  0  0  0  0  0  0  0  0  0
    4.6639    0.8343   -1.3358 N   0  0  0  0  0  0  0  0  0  0  0  0
    6.0747    0.9856   -1.3663 C   0  0  0  0  0  0  0  0  0  0  0  0
    6.6555    1.8763   -2.0432 O   0  0  0  0  0  0  0  0  0  0  0  0
    6.7574    0.0480   -0.5503 N   0  0  0  0  0  0  0  0  0  0  0  0
    8.1400    0.1798   -0.0780 C   0  0  0  0  0  0  0  0  0  0  0  0
    8.8408   -1.1821   -0.0468 C   0  0  0  0  0  0  0  0  0  0  0  0
    8.1725    0.8556    1.2952 C   0  0  0  0  0  0  0  0  0  0  0  0
    5.6995   -0.6933    0.0599 C   0  0  0  0  0  0  0  0  0  0  0  0
    5.8957   -1.5967    0.9167 O   0  0  0  0  0  0  0  0  0  0  0  0
    0.9112    1.1978   -0.2969 C   0  0  0  0  0  0  0  0  0  0  0  0
   -0.4220    1.3634   -1.0408 C   0  0  0  0  0  0  0  0  0  0  0  0
   -9.2811    3.5912   -0.8250 H   0  0  0  0  0  0  0  0  0  0  0  0
  -10.1316    5.0463   -0.1901 H   0  0  0  0  0  0  0  0  0  0  0  0
   -8.5572    5.2324   -1.0522 H   0  0  0  0  0  0  0  0  0  0  0  0
   -8.9848    3.8485    1.6840 H   0  0  0  0  0  0  0  0  0  0  0  0
   -8.2803    5.4806    1.4046 H   0  0  0  0  0  0  0  0  0  0  0  0
   -6.2339    4.4832    0.8773 H   0  0  0  0  0  0  0  0  0  0  0  0
   -4.7998    2.6881    0.1192 H   0  0  0  0  0  0  0  0  0  0  0  0
   -5.1832   -5.7488    0.9650 H   0  0  0  0  0  0  0  0  0  0  0  0
   -3.3913   -5.8456    1.1436 H   0  0  0  0  0  0  0  0  0  0  0  0
   -4.1481   -6.0535   -0.4868 H   0  0  0  0  0  0  0  0  0  0  0  0
   -2.0940   -4.1512   -0.5984 H   0  0  0  0  0  0  0  0  0  0  0  0
   -1.9143   -1.7063   -0.9914 H   0  0  0  0  0  0  0  0  0  0  0  0
   -1.1258    1.5217    1.7280 H   0  0  0  0  0  0  0  0  0  0  0  0
   -2.2636    0.1498    1.6518 H   0  0  0  0  0  0  0  0  0  0  0  0
    0.1681   -0.3160    2.4084 H   0  0  0  0  0  0  0  0  0  0  0  0
   -0.5761   -1.4429    1.2369 H   0  0  0  0  0  0  0  0  0  0  0  0
    0.8454   -0.9294   -0.4607 H   0  0  0  0  0  0  0  0  0  0  0  0
    1.6960   -2.5122    1.4646 H   0  0  0  0  0  0  0  0  0  0  0  0
    3.3652   -2.1048    1.8974 H   0  0  0  0  0  0  0  0  0  0  0  0
    2.2422   -2.9994   -0.7427 H   0  0  0  0  0  0  0  0  0  0  0  0
    3.8718   -3.2277   -0.0475 H   0  0  0  0  0  0  0  0  0  0  0  0
    2.7748   -0.9485   -1.7513 H   0  0  0  0  0  0  0  0  0  0  0  0
    4.3070   -1.8372   -1.9097 H   0  0  0  0  0  0  0  0  0  0  0  0
    3.2483    1.3855    0.6393 H   0  0  0  0  0  0  0  0  0  0  0  0
    4.1029    0.3267    1.7039 H   0  0  0  0  0  0  0  0  0  0  0  0
    3.9865    1.4180   -1.8739 H   0  0  0  0  0  0  0  0  0  0  0  0
    8.7054    0.8200   -0.7910 H   0  0  0  0  0  0  0  0  0  0  0  0
    9.9191   -1.0459    0.1832 H   0  0  0  0  0  0  0  0  0  0  0  0
    8.7528   -1.6758   -1.0384 H   0  0  0  0  0  0  0  0  0  0  0  0
    8.4029   -1.8476    0.7254 H   0  0  0  0  0  0  0  0  0  0  0  0
    7.6766    1.8485    1.2393 H   0  0  0  0  0  0  0  0  0  0  0  0
    9.2228    1.0064    1.6244 H   0  0  0  0  0  0  0  0  0  0  0  0
    7.6460    0.2343    2.0516 H   0  0  0  0  0  0  0  0  0  0  0  0
    1.7226    1.3179   -1.0441 H   0  0  0  0  0  0  0  0  0  0  0  0
    1.0078    1.9955    0.4717 H   0  0  0  0  0  0  0  0  0  0  0  0
   -0.3821    0.7710   -1.9809 H   0  0  0  0  0  0  0  0  0  0  0  0
   -0.5603    2.4330   -1.3075 H   0  0  0  0  0  0  0  0  0  0  0  0
  1  2  1  0
  2  3  1  0
  3  4  1  0
  4  5  2  0
  4  6  1  0
  6  7  1  0
  7  8  1  0
  8  9  1  0
  9 10  2  0
 10 11  1  0
 11 12  1  0
 11 13  2  0
 13 14  1  0
 14 15  2  0
 15 16  1  0
 16 17  1  0
 17 18  2  0
 17 19  1  0
 19 20  1  0
 20 21  1  0
 21 22  1  0
 22 23  1  0
 23 24  1  0
 24 25  1  0
 25 26  1  0
 26 27  1  0
 27 28  1  0
 27 29  1  0
 29 30  1  0
 30 31  2  0
 30 32  1  0
 32 33  1  0
 33 34  1  0
 33 35  1  0
 32 36  1  0
 36 37  2  0
 22 38  1  0
 38 39  1  0
 16  7  2  0
 39 19  1  0
 15  9  1  0
 28 23  1  0
 36 27  1  0
  1 40  1  0
  1 41  1  0
  1 42  1  0
  2 43  1  0
  2 44  1  0
  3 45  1  0
  6 46  1  0
 12 47  1  0
 12 48  1  0
 12 49  1  0
 13 50  1  0
 14 51  1  0
 20 52  1  0
 20 53  1  0
 21 54  1  0
 21 55  1  0
 22 56  1  0
 24 57  1  0
 24 58  1  0
 25 59  1  0
 25 60  1  0
 26 61  1  0
 26 62  1  0
 28 63  1  0
 28 64  1  0
 29 65  1  0
 33 66  1  0
 34 67  1  0
 34 68  1  0
 34 69  1  0
 35 70  1  0
 35 71  1  0
 35 72  1  0
 38 73  1  0
 38 74  1  0
 39 75  1  0
 39 76  1  0
M  END
$$$$

     RDKit          3D

 52 56  0  0  0  0  0  0  0  0999 V2000
    0.3006    2.1210   -1.7293 O   0  0  0  0  0  0  0  0  0  0  0  0
   -0.0143    1.2432   -0.8822 C   0  0  0  0  0  0  0  0  0  0  0  0
    0.9584    0.2752   -0.4542 N   0  0  0  0  0  0  0  0  0  0  0  0
    2.2873    0.1894   -0.9992 C   0  0  0  0  0  0  0  0  0  0  0  0
    2.4862    0.2574   -2.3901 C   0  0  0  0  0  0  0  0  0  0  0  0
    3.7654    0.1196   -2.9311 C   0  0  0  0  0  0  0  0  0  0  0  0
    4.8597   -0.0922   -2.0939 C   0  0  0  0  0  0  0  0  0  0  0  0
    4.6808   -0.1741   -0.7113 C   0  0  0  0  0  0  0  0  0  0  0  0
    5.7701   -0.3252    0.0849 F   0  0  0  0  0  0  0  0  0  0  0  0
    3.3950   -0.0500   -0.1524 C   0  0  0  0  0  0  0  0  0  0  0  0
    3.2240   -0.1347    1.3111 C   0  0  0  0  0  0  0  0  0  0  0  0
    2.6131    0.7809    1.9247 O   0  0  0  0  0  0  0  0  0  0  0  0
    3.7146   -1.2618    2.0370 N   0  0  0  0  0  0  0  0  0  0  0  0
    3.7635   -1.6990    3.4427 C   0  0  0  0  0  0  0  0  0  0  0  0
    4.3410   -3.0485    3.1695 C   0  0  0  0  0  0  0  0  0  0  0  0
    4.2779   -2.5939    1.7493 C   0  0  0  0  0  0  0  0  0  0  0  0
   -1.3513    1.2634   -0.2521 C   0  0  0  0  0  0  0  0  0  0  0  0
   -1.4344    0.9516    1.0697 N   0  0  0  0  0  0  0  0  0  0  0  0
   -2.6172    0.9192    1.7359 C   0  0  0  0  0  0  0  0  0  0  0  0
   -2.6484    0.5931    3.1999 C   0  0  0  0  0  0  0  0  0  0  0  0
   -3.3568   -0.7090    3.5389 C   0  0  0  0  0  0  0  0  0  0  0  0
   -1.8445   -0.6307    3.6102 C   0  0  0  0  0  0  0  0  0  0  0  0
   -3.7881    1.2429    1.0509 C   0  0  0  0  0  0  0  0  0  0  0  0
   -3.7244    1.5389   -0.2714 N   0  0  0  0  0  0  0  0  0  0  0  0
   -2.5467    1.5488   -0.9561 C   0  0  0  0  0  0  0  0  0  0  0  0
   -2.5565    1.8284   -2.3676 N   0  0  0  0  0  0  0  0  0  0  0  0
   -3.6476    1.4782   -3.2391 C   0  0  0  0  0  0  0  0  0  0  0  0
   -3.8543    2.1933   -4.4248 C   0  0  0  0  0  0  0  0  0  0  0  0
   -4.8668    1.8496   -5.2621 N   0  0  0  0  0  0  0  0  0  0  0  0
   -5.6861    0.8050   -4.9754 C   0  0  0  0  0  0  0  0  0  0  0  0
   -5.4938    0.0810   -3.8423 N   0  0  0  0  0  0  0  0  0  0  0  0
   -4.4943    0.3906   -2.9747 C   0  0  0  0  0  0  0  0  0  0  0  0
    0.7090   -0.3650    0.3322 H   0  0  0  0  0  0  0  0  0  0  0  0
    1.6470    0.3895   -3.0607 H   0  0  0  0  0  0  0  0  0  0  0  0
    3.9082    0.1749   -4.0031 H   0  0  0  0  0  0  0  0  0  0  0  0
    5.8514   -0.1847   -2.5176 H   0  0  0  0  0  0  0  0  0  0  0  0
    4.4462   -1.0513    4.0366 H   0  0  0  0  0  0  0  0  0  0  0  0
    2.7403   -1.7518    3.8776 H   0  0  0  0  0  0  0  0  0  0  0  0
    3.6395   -3.8807    3.3966 H   0  0  0  0  0  0  0  0  0  0  0  0
    5.3804   -3.1643    3.5470 H   0  0  0  0  0  0  0  0  0  0  0  0
    5.2849   -2.5165    1.2853 H   0  0  0  0  0  0  0  0  0  0  0  0
    3.5718   -3.1980    1.1365 H   0  0  0  0  0  0  0  0  0  0  0  0
   -2.7480    1.4014    3.9559 H   0  0  0  0  0  0  0  0  0  0  0  0
   -3.7329   -1.3023    2.6781 H   0  0  0  0  0  0  0  0  0  0  0  0
   -3.8562   -0.7223    4.5301 H   0  0  0  0  0  0  0  0  0  0  0  0
   -1.4452   -0.5961    4.6461 H   0  0  0  0  0  0  0  0  0  0  0  0
   -1.3254   -1.1762    2.7927 H   0  0  0  0  0  0  0  0  0  0  0  0
   -4.7442    1.2481    1.5583 H   0  0  0  0  0  0  0  0  0  0  0  0
   -1.7856    2.3957   -2.7782 H   0  0  0  0  0  0  0  0  0  0  0  0
   -3.2138    3.0278   -4.6800 H   0  0  0  0  0  0  0  0  0  0  0  0
   -6.4868    0.5465   -5.6515 H   0  0  0  0  0  0  0  0  0  0  0  0
   -4.3528   -0.2260   -2.0972 H   0  0  0  0  0  0  0  0  0  0  0  0
  1  2  2  0
  2  3  1  0
  3  4  1  0
  4  5  2  0
  5  6  1  0
  6  7  2  0
  7  8  1  0
  8  9  1  0
  8 10  2  0
 10 11  1  0
 11 12  2  0
 11 13  1  0
 13 14  1  0
 14 15  1  0
 15 16  1  0
  2 17  1  0
 17 18  2  0
 18 19  1  0
 19 20  1  0
 20 21  1  0
 21 22  1  0
 19 23  2  0
 23 24  1  0
 24 25  2  0
 25 26  1  0
 26 27  1  0
 27 28  2  0
 28 29  1  0
 29 30  2  0
 30 31  1  0
 31 32  2  0
 10  4  1  0
 16 13  1  0
 25 17  1  0
 32 27  1  0
 22 20  1  0
  3 33  1  0
  5 34  1  0
  6 35  1  0
  7 36  1  0
 14 37  1  0
 14 38  1  0
 15 39  1  0
 15 40  1  0
 16 41  1  0
 16 42  1  0
 20 43  1  0
 21 44  1  0
 21 45  1  0
 22 46  1  0
 22 47  1  0
 23 48  1  0
 26 49  1  0
 28 50  1  0
 30 51  1  0
 32 52  1  0
M  END
$$$$

     RDKit          3D

 60 65  0  0  0  0  0  0  0  0999 V2000
   -5.7565   -0.3347   -1.3263 O   0  0  0  0  0  0  0  0  0  0  0  0
   -5.6206    0.2233    0.0627 S   0  0  0  0  0  6  0  0  0  0  0  0
   -6.7623    1.1703    0.3075 O   0  0  0  0  0  0  0  0  0  0  0  0
   -4.1147    1.1280    0.1954 C   0  0  0  0  0  0  0  0  0  0  0  0
   -3.9028    1.9657    1.2976 C   0  0  0  0  0  0  0  0  0  0  0  0
   -2.7015    2.6683    1.4275 C   0  0  0  0  0  0  0  0  0  0  0  0
   -1.6904    2.5257    0.4652 C   0  0  0  0  0  0  0  0  0  0  0  0
   -0.4311    3.2857    0.6045 C   0  0  0  0  0  0  0  0  0  0  0  0
   -0.5080    4.6362    0.7579 N   0  0  0  0  0  0  0  0  0  0  0  0
    0.6016    5.4109    0.8560 C   0  0  0  0  0  0  0  0  0  0  0  0
    1.8578    4.8156    0.7917 C   0  0  0  0  0  0  0  0  0  0  0  0
    1.9497    3.4684    0.6598 N   0  0  0  0  0  0  0  0  0  0  0  0
    0.8454    2.6717    0.5847 C   0  0  0  0  0  0  0  0  0  0  0  0
    1.0124    1.1663    0.4692 C   0  0  0  0  0  0  0  0  0  0  0  0
    2.2794    0.6009    1.0457 C   0  0  0  0  0  0  0  0  0  0  0  0
    2.8643    0.1883   -0.2427 N   0  0  0  0  0  0  0  0  0  0  0  0
    4.0596   -0.4447   -0.6942 C   0  0  0  0  0  0  0  0  0  0  0  0
    4.2679   -0.6713   -2.0601 C   0  0  0  0  0  0  0  0  0  0  0  0
    5.4456   -1.2905   -2.4844 C   0  0  0  0  0  0  0  0  0  0  0  0
    6.4056   -1.6799   -1.5423 C   0  0  0  0  0  0  0  0  0  0  0  0
    7.5991   -2.3058   -1.9323 C   0  0  0  0  0  0  0  0  0  0  0  0
    8.5349   -2.6875   -0.9653 C   0  0  0  0  0  0  0  0  0  0  0  0
    8.2861   -2.4451    0.3899 C   0  0  0  0  0  0  0  0  0  0  0  0
    7.1000   -1.8193    0.7869 C   0  0  0  0  0  0  0  0  0  0  0  0
    6.1571   -1.4348   -0.1727 C   0  0  0  0  0  0  0  0  0  0  0  0
    5.0010   -0.8285    0.2096 N   0  0  0  0  0  0  0  0  0  0  0  0
    1.6251    0.7330   -0.8282 C   0  0  0  0  0  0  0  0  0  0  0  0
   -1.9136    1.7011   -0.6497 C   0  0  0  0  0  0  0  0  0  0  0  0
   -3.1147    0.9984   -0.7782 C   0  0  0  0  0  0  0  0  0  0  0  0
   -5.6482   -1.0546    1.2601 N   0  0  0  0  0  0  0  0  0  0  0  0
   -4.5081   -1.9817    1.1267 C   0  0  0  0  0  0  0  0  0  0  0  0
   -4.7505   -3.0525    0.0521 C   0  0  0  0  0  0  0  0  0  0  0  0
   -5.9559   -3.7460    0.2970 O   0  0  0  0  0  0  0  0  0  0  0  0
   -7.0418   -2.8474    0.2110 C   0  0  0  0  0  0  0  0  0  0  0  0
   -6.9419   -1.7621    1.2946 C   0  0  0  0  0  0  0  0  0  0  0  0
   -4.6665    2.0716    2.0578 H   0  0  0  0  0  0  0  0  0  0  0  0
   -2.5539    3.3120    2.2862 H   0  0  0  0  0  0  0  0  0  0  0  0
    0.5068    6.4821    0.9720 H   0  0  0  0  0  0  0  0  0  0  0  0
    2.7549    5.4170    0.8548 H   0  0  0  0  0  0  0  0  0  0  0  0
    0.1275    0.5625    0.7660 H   0  0  0  0  0  0  0  0  0  0  0  0
    2.0890   -0.2876    1.6881 H   0  0  0  0  0  0  0  0  0  0  0  0
    2.9352    1.3359    1.5615 H   0  0  0  0  0  0  0  0  0  0  0  0
    3.5246   -0.3710   -2.7874 H   0  0  0  0  0  0  0  0  0  0  0  0
    5.6041   -1.4652   -3.5419 H   0  0  0  0  0  0  0  0  0  0  0  0
    7.8055   -2.5007   -2.9780 H   0  0  0  0  0  0  0  0  0  0  0  0
    9.4547   -3.1720   -1.2664 H   0  0  0  0  0  0  0  0  0  0  0  0
    9.0134   -2.7434    1.1335 H   0  0  0  0  0  0  0  0  0  0  0  0
    6.9156   -1.6360    1.8383 H   0  0  0  0  0  0  0  0  0  0  0  0
    1.8542    1.5690   -1.5270 H   0  0  0  0  0  0  0  0  0  0  0  0
    1.0374   -0.0711   -1.3239 H   0  0  0  0  0  0  0  0  0  0  0  0
   -1.1603    1.6050   -1.4211 H   0  0  0  0  0  0  0  0  0  0  0  0
   -3.2607    0.3540   -1.6352 H   0  0  0  0  0  0  0  0  0  0  0  0
   -4.3523   -2.4904    2.1029 H   0  0  0  0  0  0  0  0  0  0  0  0
   -3.5695   -1.4320    0.9032 H   0  0  0  0  0  0  0  0  0  0  0  0
   -4.7382   -2.6141   -0.9693 H   0  0  0  0  0  0  0  0  0  0  0  0
   -3.9147   -3.7825    0.0911 H   0  0  0  0  0  0  0  0  0  0  0  0
   -7.9798   -3.4189    0.3741 H   0  0  0  0  0  0  0  0  0  0  0  0
   -7.1166   -2.4026   -0.8051 H   0  0  0  0  0  0  0  0  0  0  0  0
   -7.7875   -1.0488    1.1904 H   0  0  0  0  0  0  0  0  0  0  0  0
   -7.0528   -2.2446    2.2899 H   0  0  0  0  0  0  0  0  0  0  0  0
  1  2  2  0
  2  3  2  0
  2  4  1  0
  4  5  2  0
  5  6  1  0
  6  7  2  0
  7  8  1  0
  8  9  2  0
  9 10  1  0
 10 11  2  0
 11 12  1  0
 12 13  2  0
 13 14  1  0
 14 15  1  0
 15 16  1  0
 16 17  1  0
 17 18  2  0
 18 19  1  0
 19 20  2  0
 20 21  1  0
 21 22  2  0
 22 23  1  0
 23 24  2  0
 24 25  1  0
 25 26  2  0
 16 27  1  0
  7 28  1  0
 28 29  2  0
  2 30  1  0
 30 31  1  0
 31 32  1  0
 32 33  1  0
 33 34  1  0
 34 35  1  0
 29  4  1  0
 35 30  1  0
 13  8  1  0
 27 14  1  0
 26 17  1  0
 25 20  1  0
  5 36  1  0
  6 37  1  0
 10 38  1  0
 11 39  1  0
 14 40  1  0
 15 41  1  0
 15 42  1  0
 18 43  1  0
 19 44  1  0
 21 45  1  0
 22 46  1  0
 23 47  1  0
 24 48  1  0
 27 49  1  0
 27 50  1  0
 28 51  1  0
 29 52  1  0
 31 53  1  0
 31 54  1  0
 32 55  1  0
 32 56  1  0
 34 57  1  0
 34 58  1  0
 35 59  1  0
 35 60  1  0
M  END
$$$$

     RDKit          3D

 48 51  0  0  0  0  0  0  0  0999 V2000
    3.7468   -4.0584   -1.0972 C   0  0  0  0  0  0  0  0  0  0  0  0
    2.3977   -3.9781   -1.6476 N   0  0  0  0  0  0  0  0  0  0  0  0
    1.7904   -2.7405   -2.0473 C   0  0  0  0  0  0  0  0  0  0  0  0
    0.5414   -2.6928   -2.2035 O   0  0  0  0  0  0  0  0  0  0  0  0
    2.5890   -1.5174   -2.2780 C   0  0  0  0  0  0  0  0  0  0  0  0
    3.6426   -1.5498   -3.2067 C   0  0  0  0  0  0  0  0  0  0  0  0
    4.3878   -0.3995   -3.4726 C   0  0  0  0  0  0  0  0  0  0  0  0
    5.4068   -0.4439   -4.3668 F   0  0  0  0  0  0  0  0  0  0  0  0
    4.0860    0.7950   -2.8176 C   0  0  0  0  0  0  0  0  0  0  0  0
    3.0302    0.8466   -1.9048 C   0  0  0  0  0  0  0  0  0  0  0  0
    2.2631   -0.3006   -1.6351 C   0  0  0  0  0  0  0  0  0  0  0  0
    1.2109   -0.2508   -0.6554 N   0  0  0  0  0  0  0  0  0  0  0  0
    0.2649    0.8255   -0.5672 C   0  0  0  0  0  0  0  0  0  0  0  0
    0.2148    1.6984   -1.4751 O   0  0  0  0  0  0  0  0  0  0  0  0
   -0.6164    0.9233    0.6141 C   0  0  0  0  0  0  0  0  0  0  0  0
   -0.0719    0.6399    1.8282 N   0  0  0  0  0  0  0  0  0  0  0  0
   -0.7889    0.7072    2.9793 C   0  0  0  0  0  0  0  0  0  0  0  0
   -0.1397    0.3518    4.2844 C   0  0  0  0  0  0  0  0  0  0  0  0
    1.1017    1.1727    4.6067 C   0  0  0  0  0  0  0  0  0  0  0  0
   -0.1926    1.4309    5.3569 C   0  0  0  0  0  0  0  0  0  0  0  0
   -2.1410    1.0460    2.9156 C   0  0  0  0  0  0  0  0  0  0  0  0
   -2.7031    1.3139    1.7107 N   0  0  0  0  0  0  0  0  0  0  0  0
   -1.9933    1.2579    0.5485 C   0  0  0  0  0  0  0  0  0  0  0  0
   -2.6649    1.5138   -0.7009 N   0  0  0  0  0  0  0  0  0  0  0  0
   -4.0920    1.4412   -0.8643 C   0  0  0  0  0  0  0  0  0  0  0  0
   -4.7371    2.2874   -1.7739 C   0  0  0  0  0  0  0  0  0  0  0  0
   -6.0829    2.2109   -1.9413 N   0  0  0  0  0  0  0  0  0  0  0  0
   -6.8224    1.3078   -1.2471 C   0  0  0  0  0  0  0  0  0  0  0  0
   -6.2167    0.4554   -0.3799 N   0  0  0  0  0  0  0  0  0  0  0  0
   -4.8737    0.4981   -0.1800 C   0  0  0  0  0  0  0  0  0  0  0  0
    3.8639   -3.3263   -0.2703 H   0  0  0  0  0  0  0  0  0  0  0  0
    4.4968   -3.8561   -1.8883 H   0  0  0  0  0  0  0  0  0  0  0  0
    3.9285   -5.0789   -0.6977 H   0  0  0  0  0  0  0  0  0  0  0  0
    1.8026   -4.8369   -1.6200 H   0  0  0  0  0  0  0  0  0  0  0  0
    3.8737   -2.4630   -3.7421 H   0  0  0  0  0  0  0  0  0  0  0  0
    4.6732    1.6828   -3.0132 H   0  0  0  0  0  0  0  0  0  0  0  0
    2.8292    1.7756   -1.3871 H   0  0  0  0  0  0  0  0  0  0  0  0
    1.0861   -1.0691   -0.0169 H   0  0  0  0  0  0  0  0  0  0  0  0
   -0.1063   -0.7030    4.6270 H   0  0  0  0  0  0  0  0  0  0  0  0
    1.8682    0.6391    5.2069 H   0  0  0  0  0  0  0  0  0  0  0  0
    1.3656    1.9783    3.8867 H   0  0  0  0  0  0  0  0  0  0  0  0
   -0.6819    2.3894    5.0740 H   0  0  0  0  0  0  0  0  0  0  0  0
   -0.1855    1.0523    6.4007 H   0  0  0  0  0  0  0  0  0  0  0  0
   -2.7452    1.0913    3.8126 H   0  0  0  0  0  0  0  0  0  0  0  0
   -2.1229    1.8725   -1.5150 H   0  0  0  0  0  0  0  0  0  0  0  0
   -4.1703    3.0147   -2.3412 H   0  0  0  0  0  0  0  0  0  0  0  0
   -7.8929    1.2613   -1.3919 H   0  0  0  0  0  0  0  0  0  0  0  0
   -4.4204   -0.2160    0.4938 H   0  0  0  0  0  0  0  0  0  0  0  0
  1  2  1  0
  2  3  1  0
  3  4  2  0
  3  5  1  0
  5  6  2  0
  6  7  1  0
  7  8  1  0
  7  9  2  0
  9 10  1  0
 10 11  2  0
 11 12  1  0
 12 13  1  0
 13 14  2  0
 13 15  1  0
 15 16  2  0
 16 17  1  0
 17 18  1  0
 18 19  1  0
 19 20  1  0
 17 21  2  0
 21 22  1  0
 22 23  2  0
 23 24  1  0
 24 25  1  0
 25 26  2  0
 26 27  1  0
 27 28  2  0
 28 29  1  0
 29 30  2  0
 11  5  1  0
 23 15  1  0
 30 25  1  0
 20 18  1  0
  1 31  1  0
  1 32  1  0
  1 33  1  0
  2 34  1  0
  6 35  1  0
  9 36  1  0
 10 37  1  0
 12 38  1  0
 18 39  1  0
 19 40  1  0
 19 41  1  0
 20 42  1  0
 20 43  1  0
 21 44  1  0
 24 45  1  0
 26 46  1  0
 28 47  1  0
 30 48  1  0
M  END
$$$$

     RDKit          3D

 53 57  0  0  0  0  0  0  0  0999 V2000
   -2.7973    2.7049    3.6721 C   0  0  0  0  0  0  0  0  0  0  0  0
   -3.7077    2.2271    2.6359 N   0  0  0  0  0  0  0  0  0  0  0  0
   -5.0043    2.4983    2.6349 N   0  0  0  0  0  0  0  0  0  0  0  0
   -5.5318    2.0038    1.4981 C   0  0  0  0  0  0  0  0  0  0  0  0
   -4.5345    1.4012    0.7549 C   0  0  0  0  0  0  0  0  0  0  0  0
   -4.6958    0.7528   -0.5591 C   0  0  0  0  0  0  0  0  0  0  0  0
   -5.6121    1.1487   -1.3294 O   0  0  0  0  0  0  0  0  0  0  0  0
   -3.8383   -0.3270   -0.9668 N   0  0  0  0  0  0  0  0  0  0  0  0
   -3.5319   -0.4967   -2.3890 C   0  0  0  0  0  0  0  0  0  0  0  0
   -2.2475   -1.3152   -2.5487 C   0  0  0  0  0  0  0  0  0  0  0  0
   -2.3286   -2.5251   -1.8196 O   0  0  0  0  0  0  0  0  0  0  0  0
   -2.3996   -2.2451   -0.4344 C   0  0  0  0  0  0  0  0  0  0  0  0
   -3.6918   -1.4967   -0.0937 C   0  0  0  0  0  0  0  0  0  0  0  0
   -3.3812    1.5600    1.5061 C   0  0  0  0  0  0  0  0  0  0  0  0
   -2.0064    1.2501    1.0703 C   0  0  0  0  0  0  0  0  0  0  0  0
   -1.6365    1.6148   -0.0773 O   0  0  0  0  0  0  0  0  0  0  0  0
   -1.1054    0.5579    1.9506 N   0  0  0  0  0  0  0  0  0  0  0  0
    0.3039    0.3878    1.7173 C   0  0  0  0  0  0  0  0  0  0  0  0
    1.1914    0.3953    2.8194 C   0  0  0  0  0  0  0  0  0  0  0  0
    2.5705    0.2060    2.6339 C   0  0  0  0  0  0  0  0  0  0  0  0
    3.0190   -0.0025    1.3347 C   0  0  0  0  0  0  0  0  0  0  0  0
    4.2883   -0.2159    0.9456 N   0  0  0  0  0  0  0  0  0  0  0  0
    4.1350   -0.3693   -0.3982 C   0  0  0  0  0  0  0  0  0  0  0  0
    5.2582   -0.6339   -1.3229 C   0  0  0  0  0  0  0  0  0  0  0  0
    5.0266   -0.7843   -2.7024 C   0  0  0  0  0  0  0  0  0  0  0  0
    6.0907   -1.0344   -3.5746 C   0  0  0  0  0  0  0  0  0  0  0  0
    7.3931   -1.1367   -3.0803 C   0  0  0  0  0  0  0  0  0  0  0  0
    7.6343   -0.9892   -1.7124 C   0  0  0  0  0  0  0  0  0  0  0  0
    6.5738   -0.7390   -0.8357 C   0  0  0  0  0  0  0  0  0  0  0  0
    2.8446   -0.2573   -0.8011 N   0  0  0  0  0  0  0  0  0  0  0  0
    2.1688   -0.0256    0.3056 N   0  0  0  0  0  0  0  0  0  0  0  0
    0.8305    0.1525    0.4277 C   0  0  0  0  0  0  0  0  0  0  0  0
   -1.9726    3.2890    3.2121 H   0  0  0  0  0  0  0  0  0  0  0  0
   -2.3808    1.8475    4.2379 H   0  0  0  0  0  0  0  0  0  0  0  0
   -3.3405    3.3597    4.3862 H   0  0  0  0  0  0  0  0  0  0  0  0
   -6.5768    2.0808    1.2284 H   0  0  0  0  0  0  0  0  0  0  0  0
   -3.3921    0.4943   -2.8739 H   0  0  0  0  0  0  0  0  0  0  0  0
   -4.3743   -1.0244   -2.8868 H   0  0  0  0  0  0  0  0  0  0  0  0
   -1.3624   -0.7157   -2.2369 H   0  0  0  0  0  0  0  0  0  0  0  0
   -2.1122   -1.5588   -3.6235 H   0  0  0  0  0  0  0  0  0  0  0  0
   -1.5126   -1.6658   -0.0952 H   0  0  0  0  0  0  0  0  0  0  0  0
   -2.3888   -3.2063    0.1212 H   0  0  0  0  0  0  0  0  0  0  0  0
   -4.5603   -2.1737   -0.2448 H   0  0  0  0  0  0  0  0  0  0  0  0
   -3.6652   -1.1985    0.9755 H   0  0  0  0  0  0  0  0  0  0  0  0
   -1.4787    0.2367    2.8713 H   0  0  0  0  0  0  0  0  0  0  0  0
    0.8105    0.5564    3.8200 H   0  0  0  0  0  0  0  0  0  0  0  0
    3.2560    0.2166    3.4715 H   0  0  0  0  0  0  0  0  0  0  0  0
    4.0251   -0.7089   -3.1073 H   0  0  0  0  0  0  0  0  0  0  0  0
    5.9050   -1.1490   -4.6348 H   0  0  0  0  0  0  0  0  0  0  0  0
    8.2153   -1.3304   -3.7571 H   0  0  0  0  0  0  0  0  0  0  0  0
    8.6439   -1.0687   -1.3306 H   0  0  0  0  0  0  0  0  0  0  0  0
    6.7836   -0.6280    0.2207 H   0  0  0  0  0  0  0  0  0  0  0  0
    0.1998    0.0797   -0.4458 H   0  0  0  0  0  0  0  0  0  0  0  0
  1  2  1  0
  2  3  1  0
  3  4  2  0
  4  5  1  0
  5  6  1  0
  6  7  2  0
  6  8  1  0
  8  9  1  0
  9 10  1  0
 10 11  1  0
 11 12  1  0
 12 13  1  0
  5 14  2  0
 14 15  1  0
 15 16  2  0
 15 17  1  0
 17 18  1  0
 18 19  1  0
 19 20  2  0
 20 21  1  0
 21 22  2  0
 22 23  1  0
 23 24  1  0
 24 25  2  0
 25 26  1  0
 26 27  2  0
 27 28  1  0
 28 29  2  0
 23 30  2  0
 30 31  1  0
 31 32  1  0
 14  2  1  0
 32 18  2  0
 13  8  1  0
 31 21  1  0
 29 24  1  0
  1 33  1  0
  1 34  1  0
  1 35  1  0
  4 36  1  0
  9 37  1  0
  9 38  1  0
 10 39  1  0
 10 40  1  0
 12 41  1  0
 12 42  1  0
 13 43  1  0
 13 44  1  0
 17 45  1  0
 19 46  1  0
 20 47  1  0
 25 48  1  0
 26 49  1  0
 27 50  1  0
 28 51  1  0
 29 52  1  0
 32 53  1  0
M  END
$$$$

     RDKit          3D

 52 56  0  0  0  0  0  0  0  0999 V2000
    0.2942    2.4825    1.3567 O   0  0  0  0  0  0  0  0  0  0  0  0
    0.0069    1.4370    0.7131 C   0  0  0  0  0  0  0  0  0  0  0  0
    0.9659    0.3738    0.5915 N   0  0  0  0  0  0  0  0  0  0  0  0
    2.2420    0.3606    1.2557 C   0  0  0  0  0  0  0  0  0  0  0  0
    2.3421    0.7330    2.6075 C   0  0  0  0  0  0  0  0  0  0  0  0
    3.5638    0.6435    3.2782 C   0  0  0  0  0  0  0  0  0  0  0  0
    3.6483    1.0059    4.5814 F   0  0  0  0  0  0  0  0  0  0  0  0
    4.6957    0.1744    2.6122 C   0  0  0  0  0  0  0  0  0  0  0  0
    4.6124   -0.2097    1.2723 C   0  0  0  0  0  0  0  0  0  0  0  0
    5.7351   -0.6250    0.6363 F   0  0  0  0  0  0  0  0  0  0  0  0
    3.3882   -0.1261    0.5849 C   0  0  0  0  0  0  0  0  0  0  0  0
    3.3238   -0.4992   -0.8399 C   0  0  0  0  0  0  0  0  0  0  0  0
    2.8978    0.3310   -1.6860 O   0  0  0  0  0  0  0  0  0  0  0  0
    3.7051   -1.8046   -1.2676 N   0  0  0  0  0  0  0  0  0  0  0  0
    4.0909   -3.0921   -0.6648 C   0  0  0  0  0  0  0  0  0  0  0  0
    4.1864   -3.8447   -1.9503 C   0  0  0  0  0  0  0  0  0  0  0  0
    3.7845   -2.5357   -2.5427 C   0  0  0  0  0  0  0  0  0  0  0  0
   -1.2714    1.3429   -0.0187 C   0  0  0  0  0  0  0  0  0  0  0  0
   -1.2401    0.8280   -1.2779 N   0  0  0  0  0  0  0  0  0  0  0  0
   -2.3627    0.6714   -2.0267 C   0  0  0  0  0  0  0  0  0  0  0  0
   -2.2826    0.0938   -3.4108 C   0  0  0  0  0  0  0  0  0  0  0  0
   -2.7146   -1.3681   -3.4778 C   0  0  0  0  0  0  0  0  0  0  0  0
   -1.2447   -1.0048   -3.6280 C   0  0  0  0  0  0  0  0  0  0  0  0
   -3.5875    1.0821   -1.5021 C   0  0  0  0  0  0  0  0  0  0  0  0
   -3.6375    1.5835   -0.2422 N   0  0  0  0  0  0  0  0  0  0  0  0
   -2.5240    1.7116    0.5333 C   0  0  0  0  0  0  0  0  0  0  0  0
   -2.6562    2.1847    1.8885 N   0  0  0  0  0  0  0  0  0  0  0  0
   -3.8930    2.1400    2.6266 C   0  0  0  0  0  0  0  0  0  0  0  0
   -4.8301    1.1086    2.4514 C   0  0  0  0  0  0  0  0  0  0  0  0
   -5.9709    1.0931    3.1890 N   0  0  0  0  0  0  0  0  0  0  0  0
   -6.2212    2.0598    4.1092 C   0  0  0  0  0  0  0  0  0  0  0  0
   -5.3166    3.0518    4.3174 N   0  0  0  0  0  0  0  0  0  0  0  0
   -4.1617    3.1050    3.6045 C   0  0  0  0  0  0  0  0  0  0  0  0
    0.7510   -0.4069   -0.0675 H   0  0  0  0  0  0  0  0  0  0  0  0
    1.4677    1.0636    3.1534 H   0  0  0  0  0  0  0  0  0  0  0  0
    5.6421    0.1126    3.1347 H   0  0  0  0  0  0  0  0  0  0  0  0
    3.2837   -3.4758   -0.0032 H   0  0  0  0  0  0  0  0  0  0  0  0
    5.0692   -3.0160   -0.1425 H   0  0  0  0  0  0  0  0  0  0  0  0
    3.4098   -4.6331   -2.0593 H   0  0  0  0  0  0  0  0  0  0  0  0
    5.2269   -4.1390   -2.2102 H   0  0  0  0  0  0  0  0  0  0  0  0
    2.7887   -2.5782   -3.0388 H   0  0  0  0  0  0  0  0  0  0  0  0
    4.5692   -2.1021   -3.2003 H   0  0  0  0  0  0  0  0  0  0  0  0
   -2.5648    0.7038   -4.2931 H   0  0  0  0  0  0  0  0  0  0  0  0
   -3.1963   -1.6701   -4.4314 H   0  0  0  0  0  0  0  0  0  0  0  0
   -2.9467   -1.8656   -2.5099 H   0  0  0  0  0  0  0  0  0  0  0  0
   -0.8703   -1.0749   -4.6697 H   0  0  0  0  0  0  0  0  0  0  0  0
   -0.6166   -1.2838   -2.7495 H   0  0  0  0  0  0  0  0  0  0  0  0
   -4.4975    0.9901   -2.0810 H   0  0  0  0  0  0  0  0  0  0  0  0
   -1.8451    2.6481    2.3583 H   0  0  0  0  0  0  0  0  0  0  0  0
   -4.6479    0.3039    1.7528 H   0  0  0  0  0  0  0  0  0  0  0  0
   -7.1357    2.0329    4.6851 H   0  0  0  0  0  0  0  0  0  0  0  0
   -3.4558    3.9029    3.7947 H   0  0  0  0  0  0  0  0  0  0  0  0
  1  2  2  0
  2  3  1  0
  3  4  1  0
  4  5  2  0
  5  6  1  0
  6  7  1  0
  6  8  2  0
  8  9  1  0
  9 10  1  0
  9 11  2  0
 11 12  1  0
 12 13  2  0
 12 14  1  0
 14 15  1  0
 15 16  1  0
 16 17  1  0
  2 18  1  0
 18 19  2  0
 19 20  1  0
 20 21  1  0
 21 22  1  0
 22 23  1  0
 20 24  2  0
 24 25  1  0
 25 26  2  0
 26 27  1  0
 27 28  1  0
 28 29  2  0
 29 30  1  0
 30 31  2  0
 31 32  1  0
 32 33  2  0
 11  4  1  0
 17 14  1  0
 26 18  1  0
 33 28  1  0
 23 21  1  0
  3 34  1  0
  5 35  1  0
  8 36  1  0
 15 37  1  0
 15 38  1  0
 16 39  1  0
 16 40  1  0
 17 41  1  0
 17 42  1  0
 21 43  1  0
 22 44  1  0
 22 45  1  0
 23 46  1  0
 23 47  1  0
 24 48  1  0
 27 49  1  0
 29 50  1  0
 31 51  1  0
 33 52  1  0
M  END
$$$$

     RDKit          3D

 63 68  0  0  0  0  0  0  0  0999 V2000
   -4.5987    5.3452   -2.7496 O   0  0  0  0  0  0  0  0  0  0  0  0
   -5.1911    4.2452   -2.9259 C   0  0  0  0  0  0  0  0  0  0  0  0
   -4.7808    3.3845   -3.9446 O   0  0  0  0  0  0  0  0  0  0  0  0
   -6.3278    3.8575   -2.0345 C   0  0  0  0  0  0  0  0  0  0  0  0
   -5.8339    3.5450   -0.6956 N   0  0  0  0  0  0  0  0  0  0  0  0
   -5.1034    2.3445   -0.4028 C   0  0  0  0  0  0  0  0  0  0  0  0
   -4.4801    2.1895    0.8442 C   0  0  0  0  0  0  0  0  0  0  0  0
   -3.7476    1.0309    1.1064 C   0  0  0  0  0  0  0  0  0  0  0  0
   -3.6590    0.0269    0.1342 C   0  0  0  0  0  0  0  0  0  0  0  0
   -2.8489   -1.1771    0.3818 C   0  0  0  0  0  0  0  0  0  0  0  0
   -3.4529   -2.4289    0.5877 C   0  0  0  0  0  0  0  0  0  0  0  0
   -2.6727   -3.5228    0.8393 N   0  0  0  0  0  0  0  0  0  0  0  0
   -1.3089   -3.4482    0.8774 C   0  0  0  0  0  0  0  0  0  0  0  0
   -0.5271   -4.6220    1.1547 N   0  0  0  0  0  0  0  0  0  0  0  0
    0.5088   -5.0672    0.2139 C   0  0  0  0  0  0  0  0  0  0  0  0
    1.6362   -5.8364    0.9421 C   0  0  0  0  0  0  0  0  0  0  0  0
    1.3374   -6.1570    2.2904 O   0  0  0  0  0  0  0  0  0  0  0  0
    0.0291   -6.6719    2.3921 C   0  0  0  0  0  0  0  0  0  0  0  0
   -0.9762   -5.5341    2.2089 C   0  0  0  0  0  0  0  0  0  0  0  0
   -0.7209   -2.1945    0.6709 C   0  0  0  0  0  0  0  0  0  0  0  0
    0.5979   -1.9096    0.6844 N   0  0  0  0  0  0  0  0  0  0  0  0
    0.6370   -0.5808    0.4216 C   0  0  0  0  0  0  0  0  0  0  0  0
    1.9019    0.1684    0.2947 C   0  0  0  0  0  0  0  0  0  0  0  0
    1.9509    1.4640   -0.0436 C   0  0  0  0  0  0  0  0  0  0  0  0
    3.2245    2.1962   -0.1982 C   0  0  0  0  0  0  0  0  0  0  0  0
    3.2093    3.5533   -0.5531 C   0  0  0  0  0  0  0  0  0  0  0  0
    4.4135    4.2440   -0.7014 C   0  0  0  0  0  0  0  0  0  0  0  0
    5.6275    3.5789   -0.4967 C   0  0  0  0  0  0  0  0  0  0  0  0
    6.8554    4.2421   -0.6349 C   0  0  0  0  0  0  0  0  0  0  0  0
    8.0515    3.5482   -0.4238 C   0  0  0  0  0  0  0  0  0  0  0  0
    8.0274    2.1935   -0.0766 C   0  0  0  0  0  0  0  0  0  0  0  0
    6.8075    1.5247    0.0644 C   0  0  0  0  0  0  0  0  0  0  0  0
    5.6059    2.2115   -0.1433 C   0  0  0  0  0  0  0  0  0  0  0  0
    4.4175    1.5656   -0.0052 N   0  0  0  0  0  0  0  0  0  0  0  0
   -0.6523   -0.0862    0.2695 C   0  0  0  0  0  0  0  0  0  0  0  0
   -1.4910   -1.1204    0.4370 N   0  0  0  0  0  0  0  0  0  0  0  0
   -4.3116    0.2075   -1.0927 C   0  0  0  0  0  0  0  0  0  0  0  0
   -5.0040    1.3526   -1.3334 N   0  0  0  0  0  0  0  0  0  0  0  0
   -4.0092    3.6304   -4.5543 H   0  0  0  0  0  0  0  0  0  0  0  0
   -6.8741    2.9853   -2.4539 H   0  0  0  0  0  0  0  0  0  0  0  0
   -7.0407    4.7082   -1.9756 H   0  0  0  0  0  0  0  0  0  0  0  0
   -5.9887    4.2474    0.0630 H   0  0  0  0  0  0  0  0  0  0  0  0
   -4.5474    2.9657    1.5976 H   0  0  0  0  0  0  0  0  0  0  0  0
   -3.2507    0.9155    2.0631 H   0  0  0  0  0  0  0  0  0  0  0  0
   -4.5301   -2.5324    0.5631 H   0  0  0  0  0  0  0  0  0  0  0  0
    0.9406   -4.2135   -0.3474 H   0  0  0  0  0  0  0  0  0  0  0  0
    0.0363   -5.7401   -0.5324 H   0  0  0  0  0  0  0  0  0  0  0  0
    1.8881   -6.7659    0.3853 H   0  0  0  0  0  0  0  0  0  0  0  0
    2.5505   -5.2074    0.9414 H   0  0  0  0  0  0  0  0  0  0  0  0
   -0.1032   -7.1203    3.3983 H   0  0  0  0  0  0  0  0  0  0  0  0
   -0.1507   -7.4807    1.6453 H   0  0  0  0  0  0  0  0  0  0  0  0
   -1.0557   -4.9696    3.1635 H   0  0  0  0  0  0  0  0  0  0  0  0
   -1.9743   -5.9499    1.9558 H   0  0  0  0  0  0  0  0  0  0  0  0
    2.8196   -0.3789    0.4698 H   0  0  0  0  0  0  0  0  0  0  0  0
    1.0343    2.0087   -0.2238 H   0  0  0  0  0  0  0  0  0  0  0  0
    2.2729    4.0734   -0.7133 H   0  0  0  0  0  0  0  0  0  0  0  0
    4.3952    5.2925   -0.9735 H   0  0  0  0  0  0  0  0  0  0  0  0
    6.8901    5.2909   -0.9049 H   0  0  0  0  0  0  0  0  0  0  0  0
    8.9985    4.0613   -0.5299 H   0  0  0  0  0  0  0  0  0  0  0  0
    8.9556    1.6610    0.0842 H   0  0  0  0  0  0  0  0  0  0  0  0
    6.7985    0.4761    0.3349 H   0  0  0  0  0  0  0  0  0  0  0  0
   -0.9549    0.9286    0.0487 H   0  0  0  0  0  0  0  0  0  0  0  0
   -4.2505   -0.5490   -1.8644 H   0  0  0  0  0  0  0  0  0  0  0  0
  1  2  2  0
  2  3  1  0
  2  4  1  0
  4  5  1  0
  5  6  1  0
  6  7  2  0
  7  8  1  0
  8  9  2  0
  9 10  1  0
 10 11  2  0
 11 12  1  0
 12 13  2  0
 13 14  1  0
 14 15  1  0
 15 16  1  0
 16 17  1  0
 17 18  1  0
 18 19  1  0
 13 20  1  0
 20 21  2  0
 21 22  1  0
 22 23  1  0
 23 24  2  0
 24 25  1  0
 25 26  2  0
 26 27  1  0
 27 28  2  0
 28 29  1  0
 29 30  2  0
 30 31  1  0
 31 32  2  0
 32 33  1  0
 33 34  2  0
 22 35  2  0
 35 36  1  0
  9 37  1  0
 37 38  2  0
 38  6  1  0
 36 10  1  0
 19 14  1  0
 36 20  1  0
 34 25  1  0
 33 28  1  0
  3 39  1  0
  4 40  1  0
  4 41  1  0
  5 42  1  0
  7 43  1  0
  8 44  1  0
 11 45  1  0
 15 46  1  0
 15 47  1  0
 16 48  1  0
 16 49  1  0
 18 50  1  0
 18 51  1  0
 19 52  1  0
 19 53  1  0
 23 54  1  0
 24 55  1  0
 26 56  1  0
 27 57  1  0
 29 58  1  0
 30 59  1  0
 31 60  1  0
 32 61  1  0
 35 62  1  0
 37 63  1  0
M  END
$$$$

     RDKit          3D

 73 77  0  0  0  0  0  0  0  0999 V2000
    9.3268    3.9407   -0.5873 C   0  0  0  0  0  0  0  0  0  0  0  0
    7.9660    3.4308   -0.4768 N   0  0  0  0  0  0  0  0  0  0  0  0
    7.6930    2.0932   -0.0421 C   0  0  0  0  0  0  0  0  0  0  0  0
    8.6457    1.3297    0.2736 O   0  0  0  0  0  0  0  0  0  0  0  0
    6.3332    1.6428    0.0538 N   0  0  0  0  0  0  0  0  0  0  0  0
    5.9460    0.2827    0.3188 C   0  0  0  0  0  0  0  0  0  0  0  0
    6.9345   -1.0770    0.1067 S   0  0  0  0  0  0  0  0  0  0  0  0
    5.7388   -2.1916    0.4785 C   0  0  0  0  0  0  0  0  0  0  0  0
    5.8508   -3.5790    0.5246 C   0  0  0  0  0  0  0  0  0  0  0  0
    4.7188   -4.3250    0.8823 C   0  0  0  0  0  0  0  0  0  0  0  0
    3.5098   -3.6757    1.1926 C   0  0  0  0  0  0  0  0  0  0  0  0
    3.4200   -2.2752    1.1419 C   0  0  0  0  0  0  0  0  0  0  0  0
    4.5491   -1.5330    0.7652 C   0  0  0  0  0  0  0  0  0  0  0  0
    4.6503   -0.1304    0.6619 C   0  0  0  0  0  0  0  0  0  0  0  0
    3.5278    0.8016    0.8946 C   0  0  0  0  0  0  0  0  0  0  0  0
    3.7112    1.8064    1.6342 O   0  0  0  0  0  0  0  0  0  0  0  0
    2.2351    0.5747    0.3006 N   0  0  0  0  0  0  0  0  0  0  0  0
    1.0403    1.1520    0.9265 C   0  0  0  0  0  0  0  0  0  0  0  0
   -0.1633    0.2260    0.7289 C   0  0  0  0  0  0  0  0  0  0  0  0
   -0.3666   -0.1098   -0.7695 C   0  0  0  0  0  0  0  0  0  0  0  0
   -1.5189   -1.0180   -1.0622 N   0  0  0  0  0  0  0  0  0  0  0  0
   -2.1230   -0.7704   -2.3875 C   0  0  0  0  0  0  0  0  0  0  0  0
   -2.9670    0.5209   -2.4289 C   0  0  0  0  0  0  0  0  0  0  0  0
   -3.3778    1.0279   -1.0373 C   0  0  0  0  0  0  0  0  0  0  0  0
   -3.6929   -0.1182   -0.0463 C   0  0  0  0  0  0  0  0  0  0  0  0
   -3.9637    0.4626    1.3734 C   0  0  0  0  0  0  0  0  0  0  0  0
   -5.4875    0.4804    1.5776 C   0  0  0  0  0  0  0  0  0  0  0  0
   -6.0424   -0.3861    0.5492 N   0  0  0  0  0  0  0  0  0  0  0  0
   -7.4771   -0.5665    0.2860 C   0  0  0  0  0  0  0  0  0  0  0  0
   -8.2483   -0.8280    1.5839 C   0  0  0  0  0  0  0  0  0  0  0  0
   -8.0395    0.6516   -0.4515 C   0  0  0  0  0  0  0  0  0  0  0  0
   -5.0261   -0.7077   -0.3849 C   0  0  0  0  0  0  0  0  0  0  0  0
   -5.2505   -1.3858   -1.4242 O   0  0  0  0  0  0  0  0  0  0  0  0
   -2.5704   -1.2156   -0.0331 C   0  0  0  0  0  0  0  0  0  0  0  0
    0.9227   -0.7641   -1.3034 C   0  0  0  0  0  0  0  0  0  0  0  0
    2.1372    0.1475   -1.1017 C   0  0  0  0  0  0  0  0  0  0  0  0
    9.8234    3.9067    0.4052 H   0  0  0  0  0  0  0  0  0  0  0  0
    9.9012    3.3263   -1.3119 H   0  0  0  0  0  0  0  0  0  0  0  0
    9.3081    4.9922   -0.9433 H   0  0  0  0  0  0  0  0  0  0  0  0
    7.1706    4.0595   -0.7288 H   0  0  0  0  0  0  0  0  0  0  0  0
    5.5812    2.3533   -0.0870 H   0  0  0  0  0  0  0  0  0  0  0  0
    6.7877   -4.0697    0.2948 H   0  0  0  0  0  0  0  0  0  0  0  0
    4.7778   -5.4047    0.9276 H   0  0  0  0  0  0  0  0  0  0  0  0
    2.6443   -4.2592    1.4786 H   0  0  0  0  0  0  0  0  0  0  0  0
    2.4897   -1.7917    1.4050 H   0  0  0  0  0  0  0  0  0  0  0  0
    0.8319    2.1477    0.4776 H   0  0  0  0  0  0  0  0  0  0  0  0
    1.1988    1.2886    2.0189 H   0  0  0  0  0  0  0  0  0  0  0  0
    0.0133   -0.7062    1.3098 H   0  0  0  0  0  0  0  0  0  0  0  0
   -1.0572    0.7423    1.1354 H   0  0  0  0  0  0  0  0  0  0  0  0
   -0.4945    0.8571   -1.3065 H   0  0  0  0  0  0  0  0  0  0  0  0
   -1.3398   -0.7268   -3.1741 H   0  0  0  0  0  0  0  0  0  0  0  0
   -2.7680   -1.6363   -2.6552 H   0  0  0  0  0  0  0  0  0  0  0  0
   -2.3917    1.3225   -2.9412 H   0  0  0  0  0  0  0  0  0  0  0  0
   -3.8777    0.3394   -3.0396 H   0  0  0  0  0  0  0  0  0  0  0  0
   -2.5569    1.6545   -0.6295 H   0  0  0  0  0  0  0  0  0  0  0  0
   -4.2558    1.7046   -1.1412 H   0  0  0  0  0  0  0  0  0  0  0  0
   -3.5430    1.4831    1.5079 H   0  0  0  0  0  0  0  0  0  0  0  0
   -3.5253   -0.1783    2.1684 H   0  0  0  0  0  0  0  0  0  0  0  0
   -5.8779    1.5132    1.4524 H   0  0  0  0  0  0  0  0  0  0  0  0
   -5.7491    0.1007    2.5886 H   0  0  0  0  0  0  0  0  0  0  0  0
   -7.6174   -1.4580   -0.3646 H   0  0  0  0  0  0  0  0  0  0  0  0
   -8.2263    0.0639    2.2458 H   0  0  0  0  0  0  0  0  0  0  0  0
   -7.7998   -1.6895    2.1226 H   0  0  0  0  0  0  0  0  0  0  0  0
   -9.3074   -1.0718    1.3539 H   0  0  0  0  0  0  0  0  0  0  0  0
   -7.9728    1.5615    0.1813 H   0  0  0  0  0  0  0  0  0  0  0  0
   -7.4676    0.8240   -1.3880 H   0  0  0  0  0  0  0  0  0  0  0  0
   -9.1038    0.4789   -0.7185 H   0  0  0  0  0  0  0  0  0  0  0  0
   -2.1225   -1.3585    0.9677 H   0  0  0  0  0  0  0  0  0  0  0  0
   -3.0251   -2.2140   -0.2187 H   0  0  0  0  0  0  0  0  0  0  0  0
    1.0950   -1.7308   -0.7816 H   0  0  0  0  0  0  0  0  0  0  0  0
    0.8253   -0.9817   -2.3876 H   0  0  0  0  0  0  0  0  0  0  0  0
    2.0418    1.0456   -1.7501 H   0  0  0  0  0  0  0  0  0  0  0  0
    3.0468   -0.4030   -1.4216 H   0  0  0  0  0  0  0  0  0  0  0  0
  1  2  1  0
  2  3  1  0
  3  4  2  0
  3  5  1  0
  5  6  1  0
  6  7  1  0
  7  8  1  0
  8  9  2  0
  9 10  1  0
 10 11  2  0
 11 12  1  0
 12 13  2  0
 13 14  1  0
 14 15  1  0
 15 16  2  0
 15 17  1  0
 17 18  1  0
 18 19  1  0
 19 20  1  0
 20 21  1  0
 21 22  1  0
 22 23  1  0
 23 24  1  0
 24 25  1  0
 25 26  1  0
 26 27  1  0
 27 28  1  0
 28 29  1  0
 29 30  1  0
 29 31  1  0
 28 32  1  0
 32 33  2  0
 25 34  1  0
 20 35  1  0
 35 36  1  0
 14  6  2  0
 36 17  1  0
 13  8  1  0
 34 21  1  0
 32 25  1  0
  1 37  1  0
  1 38  1  0
  1 39  1  0
  2 40  1  0
  5 41  1  0
  9 42  1  0
 10 43  1  0
 11 44  1  0
 12 45  1  0
 18 46  1  0
 18 47  1  0
 19 48  1  0
 19 49  1  0
 20 50  1  0
 22 51  1  0
 22 52  1  0
 23 53  1  0
 23 54  1  0
 24 55  1  0
 24 56  1  0
 26 57  1  0
 26 58  1  0
 27 59  1  0
 27 60  1  0
 29 61  1  0
 30 62  1  0
 30 63  1  0
 30 64  1  0
 31 65  1  0
 31 66  1  0
 31 67  1  0
 34 68  1  0
 34 69  1  0
 35 70  1  0
 35 71  1  0
 36 72  1  0
 36 73  1  0
M  END
$$$$

     RDKit          3D

 48 51  0  0  0  0  0  0  0  0999 V2000
    5.1004    1.0020   -3.2549 C   0  0  0  0  0  0  0  0  0  0  0  0
    5.0176    0.2505   -2.0088 N   0  0  0  0  0  0  0  0  0  0  0  0
    3.9253    0.4257   -1.0946 C   0  0  0  0  0  0  0  0  0  0  0  0
    2.9722    1.1935   -1.4006 O   0  0  0  0  0  0  0  0  0  0  0  0
    3.9125   -0.2773    0.2112 C   0  0  0  0  0  0  0  0  0  0  0  0
    5.1188   -0.4410    0.9156 C   0  0  0  0  0  0  0  0  0  0  0  0
    5.1342   -1.0618    2.1654 C   0  0  0  0  0  0  0  0  0  0  0  0
    3.9488   -1.5321    2.7287 C   0  0  0  0  0  0  0  0  0  0  0  0
    3.9742   -2.1481    3.9367 F   0  0  0  0  0  0  0  0  0  0  0  0
    2.7398   -1.3810    2.0454 C   0  0  0  0  0  0  0  0  0  0  0  0
    1.6064   -1.8953    2.5866 F   0  0  0  0  0  0  0  0  0  0  0  0
    2.7061   -0.7442    0.7899 C   0  0  0  0  0  0  0  0  0  0  0  0
    1.4661   -0.6532    0.0692 N   0  0  0  0  0  0  0  0  0  0  0  0
    0.2789   -0.0752    0.6347 C   0  0  0  0  0  0  0  0  0  0  0  0
    0.3314    0.4853    1.7634 O   0  0  0  0  0  0  0  0  0  0  0  0
   -1.0045   -0.1597   -0.0988 C   0  0  0  0  0  0  0  0  0  0  0  0
   -1.1628   -1.1588   -1.0088 N   0  0  0  0  0  0  0  0  0  0  0  0
   -2.3192   -1.3545   -1.6948 C   0  0  0  0  0  0  0  0  0  0  0  0
   -2.3636   -2.5050   -2.6787 C   0  0  0  0  0  0  0  0  0  0  0  0
   -3.1960   -2.3143   -3.9391 C   0  0  0  0  0  0  0  0  0  0  0  0
   -3.6873   -3.2410   -2.8336 C   0  0  0  0  0  0  0  0  0  0  0  0
   -3.3959   -0.4864   -1.4444 C   0  0  0  0  0  0  0  0  0  0  0  0
   -3.2463    0.5226   -0.5502 N   0  0  0  0  0  0  0  0  0  0  0  0
   -2.0875    0.7169    0.1352 C   0  0  0  0  0  0  0  0  0  0  0  0
   -1.9626    1.8591    0.9985 N   0  0  0  0  0  0  0  0  0  0  0  0
   -3.0616    2.4162    1.7399 C   0  0  0  0  0  0  0  0  0  0  0  0
   -3.0411    3.7629    2.1203 C   0  0  0  0  0  0  0  0  0  0  0  0
   -4.0686    4.2848    2.8389 N   0  0  0  0  0  0  0  0  0  0  0  0
   -5.1229    3.5141    3.2105 C   0  0  0  0  0  0  0  0  0  0  0  0
   -5.1573    2.1994    2.8724 N   0  0  0  0  0  0  0  0  0  0  0  0
   -4.1528    1.6362    2.1522 C   0  0  0  0  0  0  0  0  0  0  0  0
    5.1488    2.0894   -3.0356 H   0  0  0  0  0  0  0  0  0  0  0  0
    4.2106    0.7886   -3.8839 H   0  0  0  0  0  0  0  0  0  0  0  0
    6.0137    0.7074   -3.8137 H   0  0  0  0  0  0  0  0  0  0  0  0
    5.7609   -0.4543   -1.8033 H   0  0  0  0  0  0  0  0  0  0  0  0
    6.0506   -0.0654    0.5119 H   0  0  0  0  0  0  0  0  0  0  0  0
    6.0693   -1.1772    2.6984 H   0  0  0  0  0  0  0  0  0  0  0  0
    1.4611   -0.9241   -0.9401 H   0  0  0  0  0  0  0  0  0  0  0  0
   -1.4590   -3.1376   -2.8077 H   0  0  0  0  0  0  0  0  0  0  0  0
   -3.7645   -1.3665   -4.0323 H   0  0  0  0  0  0  0  0  0  0  0  0
   -2.8072   -2.8509   -4.8303 H   0  0  0  0  0  0  0  0  0  0  0  0
   -4.5528   -2.8534   -2.2583 H   0  0  0  0  0  0  0  0  0  0  0  0
   -3.5858   -4.3195   -3.0783 H   0  0  0  0  0  0  0  0  0  0  0  0
   -4.3430   -0.5888   -1.9532 H   0  0  0  0  0  0  0  0  0  0  0  0
   -1.0605    2.3865    0.9893 H   0  0  0  0  0  0  0  0  0  0  0  0
   -2.2120    4.3991    1.8388 H   0  0  0  0  0  0  0  0  0  0  0  0
   -5.9324    3.9458    3.7828 H   0  0  0  0  0  0  0  0  0  0  0  0
   -4.2001    0.5806    1.9223 H   0  0  0  0  0  0  0  0  0  0  0  0
  1  2  1  0
  2  3  1  0
  3  4  2  0
  3  5  1  0
  5  6  2  0
  6  7  1  0
  7  8  2  0
  8  9  1  0
  8 10  1  0
 10 11  1  0
 10 12  2  0
 12 13  1  0
 13 14  1  0
 14 15  2  0
 14 16  1  0
 16 17  2  0
 17 18  1  0
 18 19  1  0
 19 20  1  0
 20 21  1  0
 18 22  2  0
 22 23  1  0
 23 24  2  0
 24 25  1  0
 25 26  1  0
 26 27  2  0
 27 28  1  0
 28 29  2  0
 29 30  1  0
 30 31  2  0
 12  5  1  0
 24 16  1  0
 31 26  1  0
 21 19  1  0
  1 32  1  0
  1 33  1  0
  1 34  1  0
  2 35  1  0
  6 36  1  0
  7 37  1  0
 13 38  1  0
 19 39  1  0
 20 40  1  0
 20 41  1  0
 21 42  1  0
 21 43  1  0
 22 44  1  0
 25 45  1  0
 27 46  1  0
 29 47  1  0
 31 48  1  0
M  END
$$$$

     RDKit          3D

 78 83  0  0  0  0  0  0  0  0999 V2000
  -10.4322   -2.6403   -0.9035 C   0  0  0  0  0  0  0  0  0  0  0  0
   -9.7092   -2.1530   -2.1553 C   0  0  0  0  0  0  0  0  0  0  0  0
   -8.2736   -2.0303   -1.9092 N   0  0  0  0  0  0  0  0  0  0  0  0
   -7.7088   -0.9722   -1.1201 C   0  0  0  0  0  0  0  0  0  0  0  0
   -8.4614   -0.0965   -0.6131 O   0  0  0  0  0  0  0  0  0  0  0  0
   -6.2871   -0.9283   -0.9098 N   0  0  0  0  0  0  0  0  0  0  0  0
   -5.6048    0.0506   -0.1034 C   0  0  0  0  0  0  0  0  0  0  0  0
   -6.2599    1.5209    0.4261 S   0  0  0  0  0  0  0  0  0  0  0  0
   -4.8570    2.0540    1.1718 C   0  0  0  0  0  0  0  0  0  0  0  0
   -4.6628    3.2404    1.8743 C   0  0  0  0  0  0  0  0  0  0  0  0
   -3.4069    3.4731    2.4526 C   0  0  0  0  0  0  0  0  0  0  0  0
   -2.3814    2.5180    2.3265 C   0  0  0  0  0  0  0  0  0  0  0  0
   -2.6001    1.3242    1.6167 C   0  0  0  0  0  0  0  0  0  0  0  0
   -3.8528    1.1047    1.0251 C   0  0  0  0  0  0  0  0  0  0  0  0
   -4.2572   -0.0261    0.2873 C   0  0  0  0  0  0  0  0  0  0  0  0
   -3.3780   -1.1772   -0.0122 C   0  0  0  0  0  0  0  0  0  0  0  0
   -3.7953   -2.3391    0.2518 O   0  0  0  0  0  0  0  0  0  0  0  0
   -2.0574   -0.9967   -0.5675 N   0  0  0  0  0  0  0  0  0  0  0  0
   -1.7962    0.0947   -1.5224 C   0  0  0  0  0  0  0  0  0  0  0  0
   -0.3604    0.6139   -1.3763 C   0  0  0  0  0  0  0  0  0  0  0  0
    0.6361   -0.5614   -1.4906 C   0  0  0  0  0  0  0  0  0  0  0  0
    2.0623   -0.1404   -1.4904 N   0  0  0  0  0  0  0  0  0  0  0  0
    2.4662    0.5659   -2.7376 C   0  0  0  0  0  0  0  0  0  0  0  0
    3.0343    1.9677   -2.4832 C   0  0  0  0  0  0  0  0  0  0  0  0
    4.2365    1.9157   -1.5297 C   0  0  0  0  0  0  0  0  0  0  0  0
    4.0258    0.9112   -0.3632 C   0  0  0  0  0  0  0  0  0  0  0  0
    2.5516    0.4730   -0.2298 C   0  0  0  0  0  0  0  0  0  0  0  0
    4.5424    1.4596    0.9430 C   0  0  0  0  0  0  0  0  0  0  0  0
    4.1005    2.5025    1.5010 O   0  0  0  0  0  0  0  0  0  0  0  0
    5.5818    0.6560    1.5003 N   0  0  0  0  0  0  0  0  0  0  0  0
    6.5053    1.1148    2.5422 C   0  0  0  0  0  0  0  0  0  0  0  0
    6.9309   -0.0450    3.4479 C   0  0  0  0  0  0  0  0  0  0  0  0
    8.1147   -0.8567    2.8897 C   0  0  0  0  0  0  0  0  0  0  0  0
    8.0420   -1.1838    1.3861 C   0  0  0  0  0  0  0  0  0  0  0  0
    6.6400   -1.5821    0.9210 C   0  0  0  0  0  0  0  0  0  0  0  0
    5.8407   -0.3957    0.6114 N   0  0  0  0  0  0  0  0  0  0  0  0
    4.9358   -0.2885   -0.4836 C   0  0  0  0  0  0  0  0  0  0  0  0
    4.9028   -1.1178   -1.4320 O   0  0  0  0  0  0  0  0  0  0  0  0
    0.3349   -1.5964   -0.3909 C   0  0  0  0  0  0  0  0  0  0  0  0
   -1.1011   -2.1154   -0.5224 C   0  0  0  0  0  0  0  0  0  0  0  0
  -10.3280   -1.9039   -0.0802 H   0  0  0  0  0  0  0  0  0  0  0  0
  -10.0113   -3.6145   -0.5780 H   0  0  0  0  0  0  0  0  0  0  0  0
  -11.5129   -2.7712   -1.1250 H   0  0  0  0  0  0  0  0  0  0  0  0
   -9.8813   -2.8894   -2.9698 H   0  0  0  0  0  0  0  0  0  0  0  0
  -10.1225   -1.1742   -2.4830 H   0  0  0  0  0  0  0  0  0  0  0  0
   -7.6315   -2.7128   -2.3716 H   0  0  0  0  0  0  0  0  0  0  0  0
   -5.7207   -1.6869   -1.3509 H   0  0  0  0  0  0  0  0  0  0  0  0
   -5.4611    3.9648    1.9774 H   0  0  0  0  0  0  0  0  0  0  0  0
   -3.2280    4.3866    3.0043 H   0  0  0  0  0  0  0  0  0  0  0  0
   -1.4172    2.7012    2.7843 H   0  0  0  0  0  0  0  0  0  0  0  0
   -1.8065    0.5906    1.5476 H   0  0  0  0  0  0  0  0  0  0  0  0
   -1.9511   -0.2821   -2.5572 H   0  0  0  0  0  0  0  0  0  0  0  0
   -2.4908    0.9460   -1.3702 H   0  0  0  0  0  0  0  0  0  0  0  0
   -0.1743    1.3706   -2.1672 H   0  0  0  0  0  0  0  0  0  0  0  0
   -0.2652    1.1157   -0.3918 H   0  0  0  0  0  0  0  0  0  0  0  0
    0.4440   -1.0765   -2.4597 H   0  0  0  0  0  0  0  0  0  0  0  0
    3.2415   -0.0430   -3.2489 H   0  0  0  0  0  0  0  0  0  0  0  0
    1.6255    0.6567   -3.4603 H   0  0  0  0  0  0  0  0  0  0  0  0
    2.2381    2.6116   -2.0500 H   0  0  0  0  0  0  0  0  0  0  0  0
    3.3469    2.4216   -3.4488 H   0  0  0  0  0  0  0  0  0  0  0  0
    5.1454    1.6523   -2.1141 H   0  0  0  0  0  0  0  0  0  0  0  0
    4.4014    2.9440   -1.1425 H   0  0  0  0  0  0  0  0  0  0  0  0
    2.4835   -0.2631    0.6009 H   0  0  0  0  0  0  0  0  0  0  0  0
    1.9345    1.3552    0.0436 H   0  0  0  0  0  0  0  0  0  0  0  0
    5.9965    1.8735    3.1751 H   0  0  0  0  0  0  0  0  0  0  0  0
    7.3883    1.6031    2.0772 H   0  0  0  0  0  0  0  0  0  0  0  0
    6.0640   -0.7147    3.6367 H   0  0  0  0  0  0  0  0  0  0  0  0
    7.2351    0.3669    4.4364 H   0  0  0  0  0  0  0  0  0  0  0  0
    8.1799   -1.8094    3.4629 H   0  0  0  0  0  0  0  0  0  0  0  0
    9.0590   -0.2993    3.0774 H   0  0  0  0  0  0  0  0  0  0  0  0
    8.4031   -0.3184    0.7884 H   0  0  0  0  0  0  0  0  0  0  0  0
    8.7387   -2.0255    1.1820 H   0  0  0  0  0  0  0  0  0  0  0  0
    6.1231   -2.1967    1.6877 H   0  0  0  0  0  0  0  0  0  0  0  0
    6.7393   -2.2116    0.0102 H   0  0  0  0  0  0  0  0  0  0  0  0
    1.0457   -2.4479   -0.4700 H   0  0  0  0  0  0  0  0  0  0  0  0
    0.4383   -1.1406    0.6171 H   0  0  0  0  0  0  0  0  0  0  0  0
   -1.3081   -2.7725    0.3488 H   0  0  0  0  0  0  0  0  0  0  0  0
   -1.2020   -2.7246   -1.4474 H   0  0  0  0  0  0  0  0  0  0  0  0
  1  2  1  0
  2  3  1  0
  3  4  1  0
  4  5  2  0
  4  6  1  0
  6  7  1  0
  7  8  1  0
  8  9  1  0
  9 10  2  0
 10 11  1  0
 11 12  2  0
 12 13  1  0
 13 14  2  0
 14 15  1  0
 15 16  1  0
 16 17  2  0
 16 18  1  0
 18 19  1  0
 19 20  1  0
 20 21  1  0
 21 22  1  0
 22 23  1  0
 23 24  1  0
 24 25  1  0
 25 26  1  0
 26 27  1  0
 26 28  1  0
 28 29  2  0
 28 30  1  0
 30 31  1  0
 31 32  1  0
 32 33  1  0
 33 34  1  0
 34 35  1  0
 35 36  1  0
 36 37  1  0
 37 38  2  0
 21 39  1  0
 39 40  1  0
 15  7  2  0
 40 18  1  0
 14  9  1  0
 27 22  1  0
 36 30  1  0
 37 26  1  0
  1 41  1  0
  1 42  1  0
  1 43  1  0
  2 44  1  0
  2 45  1  0
  3 46  1  0
  6 47  1  0
 10 48  1  0
 11 49  1  0
 12 50  1  0
 13 51  1  0
 19 52  1  0
 19 53  1  0
 20 54  1  0
 20 55  1  0
 21 56  1  0
 23 57  1  0
 23 58  1  0
 24 59  1  0
 24 60  1  0
 25 61  1  0
 25 62  1  0
 27 63  1  0
 27 64  1  0
 31 65  1  0
 31 66  1  0
 32 67  1  0
 32 68  1  0
 33 69  1  0
 33 70  1  0
 34 71  1  0
 34 72  1  0
 35 73  1  0
 35 74  1  0
 39 75  1  0
 39 76  1  0
 40 77  1  0
 40 78  1  0
M  END
$$$$

     RDKit          3D

 61 64  0  0  0  0  0  0  0  0999 V2000
   -4.8994   -2.0000   -2.0794 C   0  0  0  0  0  0  0  0  0  0  0  0
   -4.0114   -2.6120   -0.9767 C   0  0  0  0  0  0  0  0  0  0  0  0
   -2.5324   -2.4637   -1.3727 C   0  0  0  0  0  0  0  0  0  0  0  0
   -4.2858   -3.9890   -0.8718 O   0  0  0  0  0  0  0  0  0  0  0  0
   -4.2734   -1.9367    0.3956 C   0  0  0  0  0  0  0  0  0  0  0  0
   -3.9482   -0.5083    0.3738 N   0  0  0  0  0  0  0  0  0  0  0  0
   -2.7613    0.0294    0.9773 C   0  0  0  0  0  0  0  0  0  0  0  0
   -1.9595   -0.7302    1.5867 O   0  0  0  0  0  0  0  0  0  0  0  0
   -2.4549    1.4716    0.8668 C   0  0  0  0  0  0  0  0  0  0  0  0
   -3.4714    2.4092    1.1145 C   0  0  0  0  0  0  0  0  0  0  0  0
   -3.2083    3.7877    1.0653 C   0  0  0  0  0  0  0  0  0  0  0  0
   -4.3192    4.7827    1.2921 C   0  0  0  0  0  0  0  0  0  0  0  0
   -5.2186    4.3025    2.2281 F   0  0  0  0  0  0  0  0  0  0  0  0
   -4.9835    5.0021    0.1000 F   0  0  0  0  0  0  0  0  0  0  0  0
   -3.8152    5.9859    1.7553 F   0  0  0  0  0  0  0  0  0  0  0  0
   -1.9232    4.2237    0.7096 C   0  0  0  0  0  0  0  0  0  0  0  0
   -0.9082    3.3011    0.4522 C   0  0  0  0  0  0  0  0  0  0  0  0
   -1.1546    1.9212    0.5405 C   0  0  0  0  0  0  0  0  0  0  0  0
   -0.1269    0.9801    0.1803 N   0  0  0  0  0  0  0  0  0  0  0  0
    1.2489    1.1063    0.5776 C   0  0  0  0  0  0  0  0  0  0  0  0
    1.5900    2.0124    1.3853 O   0  0  0  0  0  0  0  0  0  0  0  0
    2.2599    0.1739    0.0245 C   0  0  0  0  0  0  0  0  0  0  0  0
    1.9589   -0.4898   -1.1249 N   0  0  0  0  0  0  0  0  0  0  0  0
    2.8307   -1.3427   -1.7216 C   0  0  0  0  0  0  0  0  0  0  0  0
    2.4522   -2.0293   -3.0005 C   0  0  0  0  0  0  0  0  0  0  0  0
    2.3640   -3.5458   -2.9089 C   0  0  0  0  0  0  0  0  0  0  0  0
    1.0936   -2.7171   -2.9779 C   0  0  0  0  0  0  0  0  0  0  0  0
    4.0969   -1.5177   -1.1613 C   0  0  0  0  0  0  0  0  0  0  0  0
    4.4092   -0.8731   -0.0090 N   0  0  0  0  0  0  0  0  0  0  0  0
    3.5324   -0.0334    0.6089 C   0  0  0  0  0  0  0  0  0  0  0  0
    3.8850    0.5408    1.8779 N   0  0  0  0  0  0  0  0  0  0  0  0
    5.2290    0.9061    2.2355 C   0  0  0  0  0  0  0  0  0  0  0  0
    5.6095    0.9537    3.5815 C   0  0  0  0  0  0  0  0  0  0  0  0
    6.8730    1.3184    3.9210 N   0  0  0  0  0  0  0  0  0  0  0  0
    7.7822    1.6536    2.9699 C   0  0  0  0  0  0  0  0  0  0  0  0
    7.4324    1.6361    1.6580 N   0  0  0  0  0  0  0  0  0  0  0  0
    6.1809    1.2751    1.2729 C   0  0  0  0  0  0  0  0  0  0  0  0
   -4.7813   -2.5715   -3.0250 H   0  0  0  0  0  0  0  0  0  0  0  0
   -4.6227   -0.9430   -2.2783 H   0  0  0  0  0  0  0  0  0  0  0  0
   -5.9695   -2.0365   -1.7832 H   0  0  0  0  0  0  0  0  0  0  0  0
   -1.8754   -2.8766   -0.5773 H   0  0  0  0  0  0  0  0  0  0  0  0
   -2.2646   -1.3983   -1.5376 H   0  0  0  0  0  0  0  0  0  0  0  0
   -2.3285   -3.0207   -2.3125 H   0  0  0  0  0  0  0  0  0  0  0  0
   -5.2442   -4.0938   -0.6319 H   0  0  0  0  0  0  0  0  0  0  0  0
   -3.6845   -2.4610    1.1793 H   0  0  0  0  0  0  0  0  0  0  0  0
   -5.3426   -2.0515    0.6774 H   0  0  0  0  0  0  0  0  0  0  0  0
   -4.5823    0.1332   -0.1530 H   0  0  0  0  0  0  0  0  0  0  0  0
   -4.4676    2.0635    1.3643 H   0  0  0  0  0  0  0  0  0  0  0  0
   -1.7057    5.2802    0.6150 H   0  0  0  0  0  0  0  0  0  0  0  0
    0.0627    3.6672    0.1444 H   0  0  0  0  0  0  0  0  0  0  0  0
   -0.4111    0.1238   -0.3466 H   0  0  0  0  0  0  0  0  0  0  0  0
    2.7700   -1.6128   -3.9799 H   0  0  0  0  0  0  0  0  0  0  0  0
    2.5572   -3.9888   -1.9077 H   0  0  0  0  0  0  0  0  0  0  0  0
    2.6060   -4.0783   -3.8527 H   0  0  0  0  0  0  0  0  0  0  0  0
    0.5345   -2.6826   -2.0177 H   0  0  0  0  0  0  0  0  0  0  0  0
    0.5815   -2.7640   -3.9621 H   0  0  0  0  0  0  0  0  0  0  0  0
    4.8233   -2.1723   -1.6253 H   0  0  0  0  0  0  0  0  0  0  0  0
    3.1545    0.5687    2.6246 H   0  0  0  0  0  0  0  0  0  0  0  0
    4.9041    0.6931    4.3597 H   0  0  0  0  0  0  0  0  0  0  0  0
    8.7838    1.9419    3.2580 H   0  0  0  0  0  0  0  0  0  0  0  0
    5.9289    1.2958    0.2215 H   0  0  0  0  0  0  0  0  0  0  0  0
  1  2  1  0
  2  3  1  0
  2  4  1  0
  2  5  1  0
  5  6  1  0
  6  7  1  0
  7  8  2  0
  7  9  1  0
  9 10  2  0
 10 11  1  0
 11 12  1  0
 12 13  1  0
 12 14  1  0
 12 15  1  0
 11 16  2  0
 16 17  1  0
 17 18  2  0
 18 19  1  0
 19 20  1  0
 20 21  2  0
 20 22  1  0
 22 23  2  0
 23 24  1  0
 24 25  1  0
 25 26  1  0
 26 27  1  0
 24 28  2  0
 28 29  1  0
 29 30  2  0
 30 31  1  0
 31 32  1  0
 32 33  2  0
 33 34  1  0
 34 35  2  0
 35 36  1  0
 36 37  2  0
 18  9  1  0
 30 22  1  0
 37 32  1  0
 27 25  1  0
  1 38  1  0
  1 39  1  0
  1 40  1  0
  3 41  1  0
  3 42  1  0
  3 43  1  0
  4 44  1  0
  5 45  1  0
  5 46  1  0
  6 47  1  0
 10 48  1  0
 16 49  1  0
 17 50  1  0
 19 51  1  0
 25 52  1  0
 26 53  1  0
 26 54  1  0
 27 55  1  0
 27 56  1  0
 28 57  1  0
 31 58  1  0
 33 59  1  0
 35 60  1  0
 37 61  1  0
M  END
$$$$

     RDKit          3D

 72 76  0  0  0  0  0  0  0  0999 V2000
    9.2696    4.0884    0.9380 C   0  0  0  0  0  0  0  0  0  0  0  0
    8.9414    2.6037    1.0608 C   0  0  0  0  0  0  0  0  0  0  0  0
    7.5203    2.3582    0.8144 N   0  0  0  0  0  0  0  0  0  0  0  0
    6.9798    1.0316    0.8142 C   0  0  0  0  0  0  0  0  0  0  0  0
    7.7275    0.0513    1.0770 O   0  0  0  0  0  0  0  0  0  0  0  0
    5.5977    0.8303    0.4827 N   0  0  0  0  0  0  0  0  0  0  0  0
    4.9376   -0.4474    0.4913 C   0  0  0  0  0  0  0  0  0  0  0  0
    5.4804   -1.8362    1.2982 S   0  0  0  0  0  0  0  0  0  0  0  0
    4.1568   -2.7788    0.8845 C   0  0  0  0  0  0  0  0  0  0  0  0
    3.9221   -4.1136    1.2069 C   0  0  0  0  0  0  0  0  0  0  0  0
    2.7492   -4.7148    0.7284 C   0  0  0  0  0  0  0  0  0  0  0  0
    1.8441   -3.9796   -0.0595 C   0  0  0  0  0  0  0  0  0  0  0  0
    2.1018   -2.6349   -0.3726 C   0  0  0  0  0  0  0  0  0  0  0  0
    3.2668   -2.0328    0.1223 C   0  0  0  0  0  0  0  0  0  0  0  0
    3.6897   -0.7063   -0.0893 C   0  0  0  0  0  0  0  0  0  0  0  0
    2.9060    0.2987   -0.8330 C   0  0  0  0  0  0  0  0  0  0  0  0
    3.4475    0.8925   -1.8049 O   0  0  0  0  0  0  0  0  0  0  0  0
    1.5377    0.5912   -0.4829 N   0  0  0  0  0  0  0  0  0  0  0  0
    1.0848    0.5251    0.9143 C   0  0  0  0  0  0  0  0  0  0  0  0
   -0.3044   -0.1067    0.9673 C   0  0  0  0  0  0  0  0  0  0  0  0
   -1.3368    0.7087    0.1530 C   0  0  0  0  0  0  0  0  0  0  0  0
   -2.4291   -0.1797   -0.3328 N   0  0  0  0  0  0  0  0  0  0  0  0
   -2.1034   -0.9437   -1.5586 C   0  0  0  0  0  0  0  0  0  0  0  0
   -3.1783   -2.0006   -1.8261 C   0  0  0  0  0  0  0  0  0  0  0  0
   -4.5635   -1.3494   -1.9357 C   0  0  0  0  0  0  0  0  0  0  0  0
   -4.8658   -0.4619   -0.7071 C   0  0  0  0  0  0  0  0  0  0  0  0
   -5.1372   -1.3133    0.5753 C   0  0  0  0  0  0  0  0  0  0  0  0
   -6.5212   -0.9324    0.9758 C   0  0  0  0  0  0  0  0  0  0  0  0
   -7.1051   -1.3933    1.9928 O   0  0  0  0  0  0  0  0  0  0  0  0
   -7.1310   -0.0125    0.0896 N   0  0  0  0  0  0  0  0  0  0  0  0
   -8.3317    0.7730    0.3680 C   0  0  0  0  0  0  0  0  0  0  0  0
   -7.9934    1.9597    1.2625 C   0  0  0  0  0  0  0  0  0  0  0  0
   -6.1609    0.2825   -0.8974 C   0  0  0  0  0  0  0  0  0  0  0  0
   -6.3600    1.1239   -1.8166 O   0  0  0  0  0  0  0  0  0  0  0  0
   -3.7100    0.5414   -0.4894 C   0  0  0  0  0  0  0  0  0  0  0  0
   -0.6968    1.6093   -0.9472 C   0  0  0  0  0  0  0  0  0  0  0  0
    0.6118    1.0489   -1.5310 C   0  0  0  0  0  0  0  0  0  0  0  0
   10.3530    4.2480    1.1235 H   0  0  0  0  0  0  0  0  0  0  0  0
    9.0260    4.4492   -0.0839 H   0  0  0  0  0  0  0  0  0  0  0  0
    8.6871    4.6726    1.6825 H   0  0  0  0  0  0  0  0  0  0  0  0
    9.2057    2.2549    2.0830 H   0  0  0  0  0  0  0  0  0  0  0  0
    9.5483    2.0375    0.3204 H   0  0  0  0  0  0  0  0  0  0  0  0
    6.8812    3.1591    0.6077 H   0  0  0  0  0  0  0  0  0  0  0  0
    5.0538    1.6653    0.1747 H   0  0  0  0  0  0  0  0  0  0  0  0
    4.6293   -4.6751    1.8042 H   0  0  0  0  0  0  0  0  0  0  0  0
    2.5413   -5.7516    0.9606 H   0  0  0  0  0  0  0  0  0  0  0  0
    0.9469   -4.4561   -0.4314 H   0  0  0  0  0  0  0  0  0  0  0  0
    1.4079   -2.0859   -0.9952 H   0  0  0  0  0  0  0  0  0  0  0  0
    1.7742   -0.0740    1.5450 H   0  0  0  0  0  0  0  0  0  0  0  0
    1.0499    1.5504    1.3400 H   0  0  0  0  0  0  0  0  0  0  0  0
   -0.2315   -1.1480    0.5918 H   0  0  0  0  0  0  0  0  0  0  0  0
   -0.6357   -0.1775    2.0267 H   0  0  0  0  0  0  0  0  0  0  0  0
   -1.7677    1.4204    0.8958 H   0  0  0  0  0  0  0  0  0  0  0  0
   -1.1342   -1.4708   -1.4466 H   0  0  0  0  0  0  0  0  0  0  0  0
   -2.0361   -0.2744   -2.4438 H   0  0  0  0  0  0  0  0  0  0  0  0
   -2.9452   -2.5317   -2.7745 H   0  0  0  0  0  0  0  0  0  0  0  0
   -3.1715   -2.7501   -1.0059 H   0  0  0  0  0  0  0  0  0  0  0  0
   -4.5883   -0.7308   -2.8605 H   0  0  0  0  0  0  0  0  0  0  0  0
   -5.3381   -2.1405   -2.0418 H   0  0  0  0  0  0  0  0  0  0  0  0
   -4.4299   -1.0744    1.3987 H   0  0  0  0  0  0  0  0  0  0  0  0
   -5.1086   -2.4071    0.3791 H   0  0  0  0  0  0  0  0  0  0  0  0
   -8.7714    1.1406   -0.5841 H   0  0  0  0  0  0  0  0  0  0  0  0
   -9.0889    0.1332    0.8699 H   0  0  0  0  0  0  0  0  0  0  0  0
   -8.9098    2.5528    1.4645 H   0  0  0  0  0  0  0  0  0  0  0  0
   -7.5788    1.6013    2.2285 H   0  0  0  0  0  0  0  0  0  0  0  0
   -7.2444    2.6123    0.7660 H   0  0  0  0  0  0  0  0  0  0  0  0
   -3.9326    1.1417    0.4211 H   0  0  0  0  0  0  0  0  0  0  0  0
   -3.6527    1.2463   -1.3499 H   0  0  0  0  0  0  0  0  0  0  0  0
   -0.4554    2.5953   -0.4911 H   0  0  0  0  0  0  0  0  0  0  0  0
   -1.4125    1.8269   -1.7667 H   0  0  0  0  0  0  0  0  0  0  0  0
    1.0885    1.8538   -2.1294 H   0  0  0  0  0  0  0  0  0  0  0  0
    0.3962    0.2062   -2.2174 H   0  0  0  0  0  0  0  0  0  0  0  0
  1  2  1  0
  2  3  1  0
  3  4  1  0
  4  5  2  0
  4  6  1  0
  6  7  1  0
  7  8  1  0
  8  9  1  0
  9 10  2  0
 10 11  1  0
 11 12  2  0
 12 13  1  0
 13 14  2  0
 14 15  1  0
 15 16  1  0
 16 17  2  0
 16 18  1  0
 18 19  1  0
 19 20  1  0
 20 21  1  0
 21 22  1  0
 22 23  1  0
 23 24  1  0
 24 25  1  0
 25 26  1  0
 26 27  1  0
 27 28  1  0
 28 29  2  0
 28 30  1  0
 30 31  1  0
 31 32  1  0
 30 33  1  0
 33 34  2  0
 26 35  1  0
 21 36  1  0
 36 37  1  0
 15  7  2  0
 37 18  1  0
 14  9  1  0
 35 22  1  0
 33 26  1  0
  1 38  1  0
  1 39  1  0
  1 40  1  0
  2 41  1  0
  2 42  1  0
  3 43  1  0
  6 44  1  0
 10 45  1  0
 11 46  1  0
 12 47  1  0
 13 48  1  0
 19 49  1  0
 19 50  1  0
 20 51  1  0
 20 52  1  0
 21 53  1  0
 23 54  1  0
 23 55  1  0
 24 56  1  0
 24 57  1  0
 25 58  1  0
 25 59  1  0
 27 60  1  0
 27 61  1  0
 31 62  1  0
 31 63  1  0
 32 64  1  0
 32 65  1  0
 32 66  1  0
 35 67  1  0
 35 68  1  0
 36 69  1  0
 36 70  1  0
 37 71  1  0
 37 72  1  0
M  END
$$$$

     RDKit          3D

 53 57  0  0  0  0  0  0  0  0999 V2000
    5.3024    1.0061   -1.9191 C   0  0  0  0  0  0  0  0  0  0  0  0
    3.8441    0.9802   -1.8640 N   0  0  0  0  0  0  0  0  0  0  0  0
    3.0858    1.0585   -2.9487 N   0  0  0  0  0  0  0  0  0  0  0  0
    1.7947    1.0616   -2.5604 C   0  0  0  0  0  0  0  0  0  0  0  0
    1.7440    0.9959   -1.1786 C   0  0  0  0  0  0  0  0  0  0  0  0
    0.5846    0.8468   -0.3418 N   0  0  0  0  0  0  0  0  0  0  0  0
   -0.7660    1.0625   -0.7823 C   0  0  0  0  0  0  0  0  0  0  0  0
   -0.9906    1.7293   -1.8280 O   0  0  0  0  0  0  0  0  0  0  0  0
   -1.8876    0.4786   -0.0100 C   0  0  0  0  0  0  0  0  0  0  0  0
   -1.6172   -0.5614    0.8255 N   0  0  0  0  0  0  0  0  0  0  0  0
   -2.5853   -1.1996    1.5348 C   0  0  0  0  0  0  0  0  0  0  0  0
   -2.2541   -2.3450    2.4565 C   0  0  0  0  0  0  0  0  0  0  0  0
   -0.7903   -2.7607    2.5676 C   0  0  0  0  0  0  0  0  0  0  0  0
   -1.4335   -1.9343    3.6720 C   0  0  0  0  0  0  0  0  0  0  0  0
   -3.9076   -0.7748    1.3991 C   0  0  0  0  0  0  0  0  0  0  0  0
   -4.1949    0.2623    0.5724 N   0  0  0  0  0  0  0  0  0  0  0  0
   -3.2294    0.9055   -0.1406 C   0  0  0  0  0  0  0  0  0  0  0  0
   -3.5878    2.0448   -0.9395 N   0  0  0  0  0  0  0  0  0  0  0  0
   -4.8211    2.1313   -1.6730 C   0  0  0  0  0  0  0  0  0  0  0  0
   -5.4831    0.9882   -2.1476 C   0  0  0  0  0  0  0  0  0  0  0  0
   -6.6334    1.1152   -2.8592 N   0  0  0  0  0  0  0  0  0  0  0  0
   -7.1581    2.3389   -3.1271 C   0  0  0  0  0  0  0  0  0  0  0  0
   -6.5274    3.4598   -2.6920 N   0  0  0  0  0  0  0  0  0  0  0  0
   -5.3728    3.3803   -1.9800 C   0  0  0  0  0  0  0  0  0  0  0  0
    3.0588    0.9269   -0.7656 C   0  0  0  0  0  0  0  0  0  0  0  0
    3.5215    0.7849    0.6287 C   0  0  0  0  0  0  0  0  0  0  0  0
    3.1334    1.6201    1.4900 O   0  0  0  0  0  0  0  0  0  0  0  0
    4.3788   -0.2964    1.0266 N   0  0  0  0  0  0  0  0  0  0  0  0
    4.4313   -1.5488    0.2950 C   0  0  0  0  0  0  0  0  0  0  0  0
    4.7819   -2.5512    1.3636 C   0  0  0  0  0  0  0  0  0  0  0  0
    4.6236   -1.7406    2.6443 C   0  0  0  0  0  0  0  0  0  0  0  0
    4.8097   -0.3849    2.3136 O   0  0  0  0  0  0  0  0  0  0  0  0
    5.6365    1.9142   -2.4641 H   0  0  0  0  0  0  0  0  0  0  0  0
    5.6685    0.1070   -2.4572 H   0  0  0  0  0  0  0  0  0  0  0  0
    5.7469    1.0274   -0.9023 H   0  0  0  0  0  0  0  0  0  0  0  0
    0.9606    1.0739   -3.2479 H   0  0  0  0  0  0  0  0  0  0  0  0
    0.7361    0.5414    0.6458 H   0  0  0  0  0  0  0  0  0  0  0  0
   -3.0099   -3.1392    2.6545 H   0  0  0  0  0  0  0  0  0  0  0  0
   -0.6327   -3.8256    2.8439 H   0  0  0  0  0  0  0  0  0  0  0  0
   -0.0441   -2.1940    1.9681 H   0  0  0  0  0  0  0  0  0  0  0  0
   -1.0904   -0.8752    3.7012 H   0  0  0  0  0  0  0  0  0  0  0  0
   -1.6551   -2.5127    4.5953 H   0  0  0  0  0  0  0  0  0  0  0  0
   -4.7043   -1.2586    1.9485 H   0  0  0  0  0  0  0  0  0  0  0  0
   -2.9829    2.8959   -0.8851 H   0  0  0  0  0  0  0  0  0  0  0  0
   -5.0808   -0.0004   -1.9701 H   0  0  0  0  0  0  0  0  0  0  0  0
   -8.0760    2.4210   -3.6932 H   0  0  0  0  0  0  0  0  0  0  0  0
   -4.8907    4.2897   -1.6447 H   0  0  0  0  0  0  0  0  0  0  0  0
    3.4359   -1.7909   -0.1420 H   0  0  0  0  0  0  0  0  0  0  0  0
    5.2071   -1.5080   -0.4982 H   0  0  0  0  0  0  0  0  0  0  0  0
    5.8385   -2.8803    1.2500 H   0  0  0  0  0  0  0  0  0  0  0  0
    4.1033   -3.4329    1.3484 H   0  0  0  0  0  0  0  0  0  0  0  0
    5.3753   -2.0529    3.4014 H   0  0  0  0  0  0  0  0  0  0  0  0
    3.6038   -1.8802    3.0666 H   0  0  0  0  0  0  0  0  0  0  0  0
  1  2  1  0
  2  3  1  0
  3  4  2  0
  4  5  1  0
  5  6  1  0
  6  7  1  0
  7  8  2  0
  7  9  1  0
  9 10  2  0
 10 11  1  0
 11 12  1  0
 12 13  1  0
 13 14  1  0
 11 15  2  0
 15 16  1  0
 16 17  2  0
 17 18  1  0
 18 19  1  0
 19 20  2  0
 20 21  1  0
 21 22  2  0
 22 23  1  0
 23 24  2  0
  5 25  2  0
 25 26  1  0
 26 27  2  0
 26 28  1  0
 28 29  1  0
 29 30  1  0
 30 31  1  0
 31 32  1  0
 25  2  1  0
 32 28  1  0
 17  9  1  0
 24 19  1  0
 14 12  1  0
  1 33  1  0
  1 34  1  0
  1 35  1  0
  4 36  1  0
  6 37  1  0
 12 38  1  0
 13 39  1  0
 13 40  1  0
 14 41  1  0
 14 42  1  0
 15 43  1  0
 18 44  1  0
 20 45  1  0
 22 46  1  0
 24 47  1  0
 29 48  1  0
 29 49  1  0
 30 50  1  0
 30 51  1  0
 31 52  1  0
 31 53  1  0
M  END
$$$$

     RDKit          3D

 66 71  0  0  0  0  0  0  0  0999 V2000
   -9.9310    1.4470   -0.0969 C   0  0  0  0  0  0  0  0  0  0  0  0
   -8.5630    2.0482   -0.0758 C   0  0  0  0  0  0  0  0  0  0  0  0
   -7.8948    2.0463    0.9937 O   0  0  0  0  0  0  0  0  0  0  0  0
   -8.0177    2.6208   -1.2684 N   0  0  0  0  0  0  0  0  0  0  0  0
   -6.4365    3.3285   -1.3016 S   0  0  0  0  0  6  0  0  0  0  0  0
   -6.3937    4.4788   -0.3356 O   0  0  0  0  0  0  0  0  0  0  0  0
   -6.1476    3.8414   -2.6834 O   0  0  0  0  0  0  0  0  0  0  0  0
   -5.2357    2.1126   -0.8794 C   0  0  0  0  0  0  0  0  0  0  0  0
   -5.2725    0.8599   -1.5036 C   0  0  0  0  0  0  0  0  0  0  0  0
   -4.3286   -0.1179   -1.1772 C   0  0  0  0  0  0  0  0  0  0  0  0
   -3.3306    0.1486   -0.2251 C   0  0  0  0  0  0  0  0  0  0  0  0
   -2.3450   -0.8960    0.1367 C   0  0  0  0  0  0  0  0  0  0  0  0
   -2.7693   -2.1954    0.4749 C   0  0  0  0  0  0  0  0  0  0  0  0
   -1.8489   -3.1421    0.8242 N   0  0  0  0  0  0  0  0  0  0  0  0
   -0.5109   -2.8732    0.8604 C   0  0  0  0  0  0  0  0  0  0  0  0
    0.4282   -3.9021    1.2163 N   0  0  0  0  0  0  0  0  0  0  0  0
    1.3390   -3.7032    2.3485 C   0  0  0  0  0  0  0  0  0  0  0  0
    2.5720   -4.5951    2.1773 C   0  0  0  0  0  0  0  0  0  0  0  0
    2.1905   -5.9426    1.9701 O   0  0  0  0  0  0  0  0  0  0  0  0
    1.4886   -6.0602    0.7461 C   0  0  0  0  0  0  0  0  0  0  0  0
    0.1700   -5.2810    0.7950 C   0  0  0  0  0  0  0  0  0  0  0  0
   -0.0968   -1.5879    0.4999 C   0  0  0  0  0  0  0  0  0  0  0  0
    1.1785   -1.1630    0.3888 N   0  0  0  0  0  0  0  0  0  0  0  0
    1.0441    0.1156   -0.0374 C   0  0  0  0  0  0  0  0  0  0  0  0
    2.1674    1.0244   -0.3207 C   0  0  0  0  0  0  0  0  0  0  0  0
    3.4417    0.6314   -0.1812 C   0  0  0  0  0  0  0  0  0  0  0  0
    4.6234    1.4868   -0.4414 C   0  0  0  0  0  0  0  0  0  0  0  0
    4.5438    2.7547   -1.0530 C   0  0  0  0  0  0  0  0  0  0  0  0
    5.7093    3.4944   -1.2677 C   0  0  0  0  0  0  0  0  0  0  0  0
    6.9494    2.9739   -0.8826 C   0  0  0  0  0  0  0  0  0  0  0  0
    8.1382    3.6908   -1.0871 C   0  0  0  0  0  0  0  0  0  0  0  0
    9.3622    3.1385   -0.6944 C   0  0  0  0  0  0  0  0  0  0  0  0
    9.4050    1.8723   -0.1005 C   0  0  0  0  0  0  0  0  0  0  0  0
    8.2239    1.1515    0.1056 C   0  0  0  0  0  0  0  0  0  0  0  0
    6.9949    1.6975   -0.2825 C   0  0  0  0  0  0  0  0  0  0  0  0
    5.8445    1.0008   -0.0835 N   0  0  0  0  0  0  0  0  0  0  0  0
   -0.2941    0.4354   -0.1869 C   0  0  0  0  0  0  0  0  0  0  0  0
   -1.0024   -0.6537    0.1601 N   0  0  0  0  0  0  0  0  0  0  0  0
   -3.3029    1.4032    0.4059 C   0  0  0  0  0  0  0  0  0  0  0  0
   -4.2459    2.3816    0.0761 C   0  0  0  0  0  0  0  0  0  0  0  0
   -9.9563    0.6081   -0.8245 H   0  0  0  0  0  0  0  0  0  0  0  0
  -10.6698    2.2182   -0.4017 H   0  0  0  0  0  0  0  0  0  0  0  0
  -10.2057    1.0609    0.9084 H   0  0  0  0  0  0  0  0  0  0  0  0
   -8.5767    2.6059   -2.1505 H   0  0  0  0  0  0  0  0  0  0  0  0
   -6.0334    0.6408   -2.2420 H   0  0  0  0  0  0  0  0  0  0  0  0
   -4.3710   -1.0786   -1.6756 H   0  0  0  0  0  0  0  0  0  0  0  0
   -3.8211   -2.4518    0.4752 H   0  0  0  0  0  0  0  0  0  0  0  0
    1.6635   -2.6451    2.4278 H   0  0  0  0  0  0  0  0  0  0  0  0
    0.8143   -3.9762    3.2898 H   0  0  0  0  0  0  0  0  0  0  0  0
    3.1832   -4.5391    3.1026 H   0  0  0  0  0  0  0  0  0  0  0  0
    3.2078   -4.2235    1.3412 H   0  0  0  0  0  0  0  0  0  0  0  0
    2.1137   -5.7145   -0.1091 H   0  0  0  0  0  0  0  0  0  0  0  0
    1.2609   -7.1330    0.5710 H   0  0  0  0  0  0  0  0  0  0  0  0
   -0.5226   -5.7637    1.5188 H   0  0  0  0  0  0  0  0  0  0  0  0
   -0.2969   -5.2958   -0.2144 H   0  0  0  0  0  0  0  0  0  0  0  0
    1.9212    2.0282   -0.6334 H   0  0  0  0  0  0  0  0  0  0  0  0
    3.6431   -0.3757    0.1660 H   0  0  0  0  0  0  0  0  0  0  0  0
    3.6055    3.1766   -1.3811 H   0  0  0  0  0  0  0  0  0  0  0  0
    5.6413    4.4674   -1.7400 H   0  0  0  0  0  0  0  0  0  0  0  0
    8.1198    4.6712   -1.5487 H   0  0  0  0  0  0  0  0  0  0  0  0
   10.2790    3.6925   -0.8502 H   0  0  0  0  0  0  0  0  0  0  0  0
   10.3548    1.4494    0.2005 H   0  0  0  0  0  0  0  0  0  0  0  0
    8.2661    0.1717    0.5669 H   0  0  0  0  0  0  0  0  0  0  0  0
   -0.7022    1.3713   -0.5465 H   0  0  0  0  0  0  0  0  0  0  0  0
   -2.5600    1.6201    1.1638 H   0  0  0  0  0  0  0  0  0  0  0  0
   -4.2053    3.3431    0.5717 H   0  0  0  0  0  0  0  0  0  0  0  0
  1  2  1  0
  2  3  2  0
  2  4  1  0
  4  5  1  0
  5  6  2  0
  5  7  2  0
  5  8  1  0
  8  9  2  0
  9 10  1  0
 10 11  2  0
 11 12  1  0
 12 13  2  0
 13 14  1  0
 14 15  2  0
 15 16  1  0
 16 17  1  0
 17 18  1  0
 18 19  1  0
 19 20  1  0
 20 21  1  0
 15 22  1  0
 22 23  2  0
 23 24  1  0
 24 25  1  0
 25 26  2  0
 26 27  1  0
 27 28  2  0
 28 29  1  0
 29 30  2  0
 30 31  1  0
 31 32  2  0
 32 33  1  0
 33 34  2  0
 34 35  1  0
 35 36  2  0
 24 37  2  0
 37 38  1  0
 11 39  1  0
 39 40  2  0
 40  8  1  0
 38 12  1  0
 21 16  1  0
 38 22  1  0
 36 27  1  0
 35 30  1  0
  1 41  1  0
  1 42  1  0
  1 43  1  0
  4 44  1  0
  9 45  1  0
 10 46  1  0
 13 47  1  0
 17 48  1  0
 17 49  1  0
 18 50  1  0
 18 51  1  0
 20 52  1  0
 20 53  1  0
 21 54  1  0
 21 55  1  0
 25 56  1  0
 26 57  1  0
 28 58  1  0
 29 59  1  0
 31 60  1  0
 32 61  1  0
 33 62  1  0
 34 63  1  0
 37 64  1  0
 39 65  1  0
 40 66  1  0
M  END
$$$$

     RDKit          3D

 59 61  0  0  0  0  0  0  0  0999 V2000
   -1.2983   -3.8231    0.9226 C   0  0  0  0  0  0  0  0  0  0  0  0
   -2.4794   -3.0854    1.5627 C   0  0  0  0  0  0  0  0  0  0  0  0
   -2.1546   -2.6778    3.0042 C   0  0  0  0  0  0  0  0  0  0  0  0
   -2.8489   -1.8785    0.7419 C   0  0  0  0  0  0  0  0  0  0  0  0
   -4.0736   -1.8003    0.1639 N   0  0  0  0  0  0  0  0  0  0  0  0
   -4.4190   -0.7308   -0.5953 C   0  0  0  0  0  0  0  0  0  0  0  0
   -3.5112    0.3176   -0.8002 C   0  0  0  0  0  0  0  0  0  0  0  0
   -3.8776    1.4177   -1.6479 N   0  0  0  0  0  0  0  0  0  0  0  0
   -5.0827    2.1847   -1.4731 C   0  0  0  0  0  0  0  0  0  0  0  0
   -5.7853    2.2042   -0.2581 C   0  0  0  0  0  0  0  0  0  0  0  0
   -6.9134    2.9517   -0.1365 N   0  0  0  0  0  0  0  0  0  0  0  0
   -7.3746    3.6941   -1.1752 C   0  0  0  0  0  0  0  0  0  0  0  0
   -6.7021    3.7056   -2.3551 N   0  0  0  0  0  0  0  0  0  0  0  0
   -5.5693    2.9741   -2.5210 C   0  0  0  0  0  0  0  0  0  0  0  0
   -2.2373    0.2256   -0.1931 C   0  0  0  0  0  0  0  0  0  0  0  0
   -1.1961    1.2802   -0.3138 C   0  0  0  0  0  0  0  0  0  0  0  0
   -1.3399    2.2287   -1.1307 O   0  0  0  0  0  0  0  0  0  0  0  0
    0.0007    1.2048    0.4840 N   0  0  0  0  0  0  0  0  0  0  0  0
    1.0804    2.1480    0.3790 C   0  0  0  0  0  0  0  0  0  0  0  0
    0.8146    3.5266    0.4136 C   0  0  0  0  0  0  0  0  0  0  0  0
    1.8621    4.4460    0.4032 C   0  0  0  0  0  0  0  0  0  0  0  0
    3.1753    3.9837    0.3736 C   0  0  0  0  0  0  0  0  0  0  0  0
    3.4251    2.6492    0.3498 N   0  0  0  0  0  0  0  0  0  0  0  0
    2.4301    1.7178    0.3498 C   0  0  0  0  0  0  0  0  0  0  0  0
    2.8091    0.2870    0.2853 C   0  0  0  0  0  0  0  0  0  0  0  0
    2.0100   -0.5594   -0.2013 O   0  0  0  0  0  0  0  0  0  0  0  0
    4.0988   -0.1374    0.7556 N   0  0  0  0  0  0  0  0  0  0  0  0
    4.5382   -1.5335    0.7076 C   0  0  0  0  0  0  0  0  0  0  0  0
    5.1810   -1.8830   -0.6559 C   0  0  0  0  0  0  0  0  0  0  0  0
    5.5740   -3.3733   -0.6572 C   0  0  0  0  0  0  0  0  0  0  0  0
    6.4360   -1.0146   -0.8879 C   0  0  0  0  0  0  0  0  0  0  0  0
    4.2404   -1.6477   -1.6763 O   0  0  0  0  0  0  0  0  0  0  0  0
   -1.9537   -0.8716    0.5601 N   0  0  0  0  0  0  0  0  0  0  0  0
   -1.5574   -4.1315   -0.1135 H   0  0  0  0  0  0  0  0  0  0  0  0
   -1.0581   -4.7378    1.5059 H   0  0  0  0  0  0  0  0  0  0  0  0
   -0.3970   -3.1726    0.8882 H   0  0  0  0  0  0  0  0  0  0  0  0
   -3.3456   -3.7846    1.5910 H   0  0  0  0  0  0  0  0  0  0  0  0
   -1.9302   -3.5807    3.6130 H   0  0  0  0  0  0  0  0  0  0  0  0
   -1.2755   -1.9982    3.0342 H   0  0  0  0  0  0  0  0  0  0  0  0
   -3.0258   -2.1595    3.4603 H   0  0  0  0  0  0  0  0  0  0  0  0
   -5.3980   -0.7035   -1.0557 H   0  0  0  0  0  0  0  0  0  0  0  0
   -3.2910    1.5965   -2.4937 H   0  0  0  0  0  0  0  0  0  0  0  0
   -5.4373    1.6377    0.5943 H   0  0  0  0  0  0  0  0  0  0  0  0
   -8.2753    4.2819   -1.0606 H   0  0  0  0  0  0  0  0  0  0  0  0
   -5.0541    3.0004   -3.4724 H   0  0  0  0  0  0  0  0  0  0  0  0
    0.1242    0.4012    1.1411 H   0  0  0  0  0  0  0  0  0  0  0  0
   -0.2025    3.8902    0.4827 H   0  0  0  0  0  0  0  0  0  0  0  0
    1.6573    5.5081    0.4339 H   0  0  0  0  0  0  0  0  0  0  0  0
    3.9985    4.6857    0.3712 H   0  0  0  0  0  0  0  0  0  0  0  0
    4.7167    0.5521    1.2413 H   0  0  0  0  0  0  0  0  0  0  0  0
    3.6753   -2.2051    0.9169 H   0  0  0  0  0  0  0  0  0  0  0  0
    5.2789   -1.7040    1.5208 H   0  0  0  0  0  0  0  0  0  0  0  0
    6.2932   -3.5901    0.1621 H   0  0  0  0  0  0  0  0  0  0  0  0
    4.6720   -4.0093   -0.5154 H   0  0  0  0  0  0  0  0  0  0  0  0
    6.0472   -3.6539   -1.6244 H   0  0  0  0  0  0  0  0  0  0  0  0
    7.1533   -1.1268   -0.0460 H   0  0  0  0  0  0  0  0  0  0  0  0
    6.9482   -1.3139   -1.8290 H   0  0  0  0  0  0  0  0  0  0  0  0
    6.1573    0.0578   -0.9778 H   0  0  0  0  0  0  0  0  0  0  0  0
    4.6666   -1.8712   -2.5467 H   0  0  0  0  0  0  0  0  0  0  0  0
  1  2  1  0
  2  3  1  0
  2  4  1  0
  4  5  2  0
  5  6  1  0
  6  7  2  0
  7  8  1  0
  8  9  1  0
  9 10  2  0
 10 11  1  0
 11 12  2  0
 12 13  1  0
 13 14  2  0
  7 15  1  0
 15 16  1  0
 16 17  2  0
 16 18  1  0
 18 19  1  0
 19 20  2  0
 20 21  1  0
 21 22  2  0
 22 23  1  0
 23 24  2  0
 24 25  1  0
 25 26  2  0
 25 27  1  0
 27 28  1  0
 28 29  1  0
 29 30  1  0
 29 31  1  0
 29 32  1  0
 15 33  2  0
 33  4  1  0
 14  9  1  0
 24 19  1  0
  1 34  1  0
  1 35  1  0
  1 36  1  0
  2 37  1  0
  3 38  1  0
  3 39  1  0
  3 40  1  0
  6 41  1  0
  8 42  1  0
 10 43  1  0
 12 44  1  0
 14 45  1  0
 18 46  1  0
 20 47  1  0
 21 48  1  0
 22 49  1  0
 27 50  1  0
 28 51  1  0
 28 52  1  0
 30 53  1  0
 30 54  1  0
 30 55  1  0
 31 56  1  0
 31 57  1  0
 31 58  1  0
 32 59  1  0
M  END
$$$$

     RDKit          3D

 74 78  0  0  0  0  0  0  0  0999 V2000
   -5.9628   -3.5465   -0.4834 C   0  0  0  0  0  0  0  0  0  0  0  0
   -6.2196   -2.3664   -1.4136 C   0  0  0  0  0  0  0  0  0  0  0  0
   -5.4369   -1.2028   -0.9909 N   0  0  0  0  0  0  0  0  0  0  0  0
   -4.2744   -0.7200   -1.6505 C   0  0  0  0  0  0  0  0  0  0  0  0
   -3.6702   -1.3720   -2.5448 O   0  0  0  0  0  0  0  0  0  0  0  0
   -3.8290    0.6240   -1.1306 C   0  0  0  0  0  0  0  0  0  0  0  0
   -3.8632    1.6769   -2.2609 C   0  0  0  0  0  0  0  0  0  0  0  0
   -3.2879    3.0311   -1.8150 C   0  0  0  0  0  0  0  0  0  0  0  0
   -2.0740    2.8862   -0.8755 C   0  0  0  0  0  0  0  0  0  0  0  0
   -1.4888    1.5326   -0.9837 N   0  0  0  0  0  0  0  0  0  0  0  0
   -0.1026    1.4645   -0.4416 C   0  0  0  0  0  0  0  0  0  0  0  0
   -0.0198    1.4729    1.1023 C   0  0  0  0  0  0  0  0  0  0  0  0
    1.4465    1.5269    1.5452 C   0  0  0  0  0  0  0  0  0  0  0  0
    2.2053    0.4292    0.9285 N   0  0  0  0  0  0  0  0  0  0  0  0
    3.1871   -0.2955    1.7051 C   0  0  0  0  0  0  0  0  0  0  0  0
    3.0374   -0.4313    2.9508 O   0  0  0  0  0  0  0  0  0  0  0  0
    4.3906   -0.8700    1.0785 C   0  0  0  0  0  0  0  0  0  0  0  0
    5.5100   -0.1191    0.7239 C   0  0  0  0  0  0  0  0  0  0  0  0
    5.6438    1.2967    0.9035 N   0  0  0  0  0  0  0  0  0  0  0  0
    6.9084    1.9595    0.8238 C   0  0  0  0  0  0  0  0  0  0  0  0
    7.7664    1.7837    1.7302 O   0  0  0  0  0  0  0  0  0  0  0  0
    7.1707    2.8567   -0.2590 N   0  0  0  0  0  0  0  0  0  0  0  0
    8.3102    3.7707   -0.2304 C   0  0  0  0  0  0  0  0  0  0  0  0
    6.6997   -1.1212    0.0551 S   0  0  0  0  0  0  0  0  0  0  0  0
    5.7786   -2.5219    0.1962 C   0  0  0  0  0  0  0  0  0  0  0  0
    6.1202   -3.8111   -0.2026 C   0  0  0  0  0  0  0  0  0  0  0  0
    5.1872   -4.8364   -0.0008 C   0  0  0  0  0  0  0  0  0  0  0  0
    3.9459   -4.5638    0.6037 C   0  0  0  0  0  0  0  0  0  0  0  0
    3.6197   -3.2550    0.9968 C   0  0  0  0  0  0  0  0  0  0  0  0
    4.5517   -2.2325    0.7811 C   0  0  0  0  0  0  0  0  0  0  0  0
    2.1226    0.2618   -0.5322 C   0  0  0  0  0  0  0  0  0  0  0  0
    0.6590    0.2443   -0.9912 C   0  0  0  0  0  0  0  0  0  0  0  0
   -2.4313    0.5288   -0.4374 C   0  0  0  0  0  0  0  0  0  0  0  0
   -4.9315    0.8582   -0.1265 C   0  0  0  0  0  0  0  0  0  0  0  0
   -5.0157    1.8692    0.6231 O   0  0  0  0  0  0  0  0  0  0  0  0
   -5.8655   -0.2179   -0.0867 N   0  0  0  0  0  0  0  0  0  0  0  0
   -6.8315   -0.4410    0.9880 C   0  0  0  0  0  0  0  0  0  0  0  0
   -6.1327   -0.9212    2.2607 C   0  0  0  0  0  0  0  0  0  0  0  0
   -4.8800   -3.6640   -0.3014 H   0  0  0  0  0  0  0  0  0  0  0  0
   -6.4822   -3.4018    0.4813 H   0  0  0  0  0  0  0  0  0  0  0  0
   -6.3322   -4.4819   -0.9533 H   0  0  0  0  0  0  0  0  0  0  0  0
   -5.9293   -2.6663   -2.4448 H   0  0  0  0  0  0  0  0  0  0  0  0
   -7.2998   -2.1224   -1.4382 H   0  0  0  0  0  0  0  0  0  0  0  0
   -4.9010    1.8129   -2.6411 H   0  0  0  0  0  0  0  0  0  0  0  0
   -3.2531    1.3067   -3.1166 H   0  0  0  0  0  0  0  0  0  0  0  0
   -2.9897    3.5978   -2.7245 H   0  0  0  0  0  0  0  0  0  0  0  0
   -4.0792    3.6231   -1.3042 H   0  0  0  0  0  0  0  0  0  0  0  0
   -2.3907    3.0885    0.1731 H   0  0  0  0  0  0  0  0  0  0  0  0
   -1.3326    3.6670   -1.1480 H   0  0  0  0  0  0  0  0  0  0  0  0
    0.4546    2.3531   -0.8104 H   0  0  0  0  0  0  0  0  0  0  0  0
   -0.5594    2.3501    1.5117 H   0  0  0  0  0  0  0  0  0  0  0  0
   -0.4721    0.5535    1.5265 H   0  0  0  0  0  0  0  0  0  0  0  0
    1.8995    2.4952    1.2402 H   0  0  0  0  0  0  0  0  0  0  0  0
    1.4919    1.4745    2.6545 H   0  0  0  0  0  0  0  0  0  0  0  0
    4.7925    1.8814    1.0413 H   0  0  0  0  0  0  0  0  0  0  0  0
    6.5610    2.8360   -1.1035 H   0  0  0  0  0  0  0  0  0  0  0  0
    8.2419    4.4227    0.6679 H   0  0  0  0  0  0  0  0  0  0  0  0
    9.2597    3.1915   -0.2065 H   0  0  0  0  0  0  0  0  0  0  0  0
    8.3119    4.4009   -1.1508 H   0  0  0  0  0  0  0  0  0  0  0  0
    7.0755   -4.0156   -0.6615 H   0  0  0  0  0  0  0  0  0  0  0  0
    5.4280   -5.8473   -0.3018 H   0  0  0  0  0  0  0  0  0  0  0  0
    3.2366   -5.3668    0.7614 H   0  0  0  0  0  0  0  0  0  0  0  0
    2.6610   -3.0443    1.4555 H   0  0  0  0  0  0  0  0  0  0  0  0
    2.6708    1.0906   -1.0196 H   0  0  0  0  0  0  0  0  0  0  0  0
    2.5923   -0.6924   -0.8474 H   0  0  0  0  0  0  0  0  0  0  0  0
    0.1942   -0.6947   -0.6155 H   0  0  0  0  0  0  0  0  0  0  0  0
    0.6196    0.2458   -2.1039 H   0  0  0  0  0  0  0  0  0  0  0  0
   -2.5493    0.6677    0.6632 H   0  0  0  0  0  0  0  0  0  0  0  0
   -2.0110   -0.4892   -0.5795 H   0  0  0  0  0  0  0  0  0  0  0  0
   -7.5969   -1.1869    0.6802 H   0  0  0  0  0  0  0  0  0  0  0  0
   -7.3727    0.5043    1.2092 H   0  0  0  0  0  0  0  0  0  0  0  0
   -5.5381   -1.8397    2.0611 H   0  0  0  0  0  0  0  0  0  0  0  0
   -5.4515   -0.1316    2.6451 H   0  0  0  0  0  0  0  0  0  0  0  0
   -6.8937   -1.1468    3.0410 H   0  0  0  0  0  0  0  0  0  0  0  0
  1  2  1  0
  2  3  1  0
  3  4  1  0
  4  5  2  0
  4  6  1  0
  6  7  1  0
  7  8  1  0
  8  9  1  0
  9 10  1  0
 10 11  1  0
 11 12  1  0
 12 13  1  0
 13 14  1  0
 14 15  1  0
 15 16  2  0
 15 17  1  0
 17 18  2  0
 18 19  1  0
 19 20  1  0
 20 21  2  0
 20 22  1  0
 22 23  1  0
 18 24  1  0
 24 25  1  0
 25 26  2  0
 26 27  1  0
 27 28  2  0
 28 29  1  0
 29 30  2  0
 14 31  1  0
 31 32  1  0
 10 33  1  0
  6 34  1  0
 34 35  2  0
 34 36  1  0
 36 37  1  0
 37 38  1  0
 36  3  1  0
 33  6  1  0
 32 11  1  0
 30 17  1  0
 30 25  1  0
  1 39  1  0
  1 40  1  0
  1 41  1  0
  2 42  1  0
  2 43  1  0
  7 44  1  0
  7 45  1  0
  8 46  1  0
  8 47  1  0
  9 48  1  0
  9 49  1  0
 11 50  1  0
 12 51  1  0
 12 52  1  0
 13 53  1  0
 13 54  1  0
 19 55  1  0
 22 56  1  0
 23 57  1  0
 23 58  1  0
 23 59  1  0
 26 60  1  0
 27 61  1  0
 28 62  1  0
 29 63  1  0
 31 64  1  0
 31 65  1  0
 32 66  1  0
 32 67  1  0
 33 68  1  0
 33 69  1  0
 37 70  1  0
 37 71  1  0
 38 72  1  0
 38 73  1  0
 38 74  1  0
M  END
$$$$

     RDKit          3D

 58 61  0  0  0  0  0  0  0  0999 V2000
   -5.2225    2.8497   -1.9194 C   0  0  0  0  0  0  0  0  0  0  0  0
   -4.8723    2.0548   -3.1937 C   0  0  0  0  0  0  0  0  0  0  0  0
   -6.0037    1.0626   -3.5077 C   0  0  0  0  0  0  0  0  0  0  0  0
   -4.7848    2.9450   -4.2804 O   0  0  0  0  0  0  0  0  0  0  0  0
   -3.5167    1.3152   -3.0481 C   0  0  0  0  0  0  0  0  0  0  0  0
   -3.5129    0.3123   -1.9793 N   0  0  0  0  0  0  0  0  0  0  0  0
   -2.3582   -0.5094   -1.7386 C   0  0  0  0  0  0  0  0  0  0  0  0
   -1.3010   -0.3030   -2.3905 O   0  0  0  0  0  0  0  0  0  0  0  0
   -2.4120   -1.6005   -0.7348 C   0  0  0  0  0  0  0  0  0  0  0  0
   -3.5973   -2.3481   -0.6070 C   0  0  0  0  0  0  0  0  0  0  0  0
   -3.7067   -3.3547    0.3546 C   0  0  0  0  0  0  0  0  0  0  0  0
   -4.8542   -4.0678    0.4593 F   0  0  0  0  0  0  0  0  0  0  0  0
   -2.6365   -3.6301    1.2032 C   0  0  0  0  0  0  0  0  0  0  0  0
   -1.4515   -2.9048    1.0881 C   0  0  0  0  0  0  0  0  0  0  0  0
   -1.3232   -1.8875    0.1265 C   0  0  0  0  0  0  0  0  0  0  0  0
   -0.0863   -1.1608    0.0350 N   0  0  0  0  0  0  0  0  0  0  0  0
    0.5446   -0.5622    1.1739 C   0  0  0  0  0  0  0  0  0  0  0  0
   -0.0889   -0.4589    2.2579 O   0  0  0  0  0  0  0  0  0  0  0  0
    1.9011    0.0035    1.0430 C   0  0  0  0  0  0  0  0  0  0  0  0
    2.2052    0.6532   -0.1129 N   0  0  0  0  0  0  0  0  0  0  0  0
    3.4252    1.1982   -0.3536 C   0  0  0  0  0  0  0  0  0  0  0  0
    3.6286    1.9023   -1.6780 C   0  0  0  0  0  0  0  0  0  0  0  0
    4.6008    3.0730   -1.7123 C   0  0  0  0  0  0  0  0  0  0  0  0
    4.9875    1.7415   -2.3438 C   0  0  0  0  0  0  0  0  0  0  0  0
    4.4149    1.0748    0.6358 C   0  0  0  0  0  0  0  0  0  0  0  0
    4.1285    0.4200    1.7878 N   0  0  0  0  0  0  0  0  0  0  0  0
    2.9072   -0.1296    2.0305 C   0  0  0  0  0  0  0  0  0  0  0  0
    2.6860   -0.8355    3.2676 N   0  0  0  0  0  0  0  0  0  0  0  0
    3.7493   -1.3461    4.0889 C   0  0  0  0  0  0  0  0  0  0  0  0
    3.6095   -1.3793    5.4817 C   0  0  0  0  0  0  0  0  0  0  0  0
    4.6037   -1.8792    6.2572 N   0  0  0  0  0  0  0  0  0  0  0  0
    5.7399   -2.3722    5.7008 C   0  0  0  0  0  0  0  0  0  0  0  0
    5.8893   -2.3775    4.3505 N   0  0  0  0  0  0  0  0  0  0  0  0
    4.9211   -1.8828    3.5374 C   0  0  0  0  0  0  0  0  0  0  0  0
   -5.4182    2.1769   -1.0572 H   0  0  0  0  0  0  0  0  0  0  0  0
   -4.3915    3.5389   -1.6484 H   0  0  0  0  0  0  0  0  0  0  0  0
   -6.1348    3.4598   -2.0918 H   0  0  0  0  0  0  0  0  0  0  0  0
   -5.7479    0.4516   -4.4010 H   0  0  0  0  0  0  0  0  0  0  0  0
   -6.9448    1.6139   -3.7278 H   0  0  0  0  0  0  0  0  0  0  0  0
   -6.2006    0.3843   -2.6555 H   0  0  0  0  0  0  0  0  0  0  0  0
   -4.0762    3.6046   -4.0886 H   0  0  0  0  0  0  0  0  0  0  0  0
   -3.2792    0.8145   -4.0115 H   0  0  0  0  0  0  0  0  0  0  0  0
   -2.7110    2.0537   -2.8483 H   0  0  0  0  0  0  0  0  0  0  0  0
   -4.3423    0.1999   -1.3543 H   0  0  0  0  0  0  0  0  0  0  0  0
   -4.4385   -2.1635   -1.2638 H   0  0  0  0  0  0  0  0  0  0  0  0
   -2.7209   -4.4120    1.9473 H   0  0  0  0  0  0  0  0  0  0  0  0
   -0.6235   -3.1418    1.7427 H   0  0  0  0  0  0  0  0  0  0  0  0
    0.4111   -1.1393   -0.8814 H   0  0  0  0  0  0  0  0  0  0  0  0
    2.7734    1.9859   -2.3784 H   0  0  0  0  0  0  0  0  0  0  0  0
    5.1528    3.3117   -0.7813 H   0  0  0  0  0  0  0  0  0  0  0  0
    4.3466    3.8591   -2.4531 H   0  0  0  0  0  0  0  0  0  0  0  0
    4.9552    1.7419   -3.4547 H   0  0  0  0  0  0  0  0  0  0  0  0
    5.7504    1.1651   -1.7809 H   0  0  0  0  0  0  0  0  0  0  0  0
    5.4083    1.4774    0.5042 H   0  0  0  0  0  0  0  0  0  0  0  0
    1.7214   -0.9039    3.6626 H   0  0  0  0  0  0  0  0  0  0  0  0
    2.7143   -0.9936    5.9497 H   0  0  0  0  0  0  0  0  0  0  0  0
    6.5229   -2.7687    6.3322 H   0  0  0  0  0  0  0  0  0  0  0  0
    5.0596   -1.9325    2.4653 H   0  0  0  0  0  0  0  0  0  0  0  0
  1  2  1  0
  2  3  1  0
  2  4  1  0
  2  5  1  0
  5  6  1  0
  6  7  1  0
  7  8  2  0
  7  9  1  0
  9 10  2  0
 10 11  1  0
 11 12  1  0
 11 13  2  0
 13 14  1  0
 14 15  2  0
 15 16  1  0
 16 17  1  0
 17 18  2  0
 17 19  1  0
 19 20  2  0
 20 21  1  0
 21 22  1  0
 22 23  1  0
 23 24  1  0
 21 25  2  0
 25 26  1  0
 26 27  2  0
 27 28  1  0
 28 29  1  0
 29 30  2  0
 30 31  1  0
 31 32  2  0
 32 33  1  0
 33 34  2  0
 15  9  1  0
 27 19  1  0
 34 29  1  0
 24 22  1  0
  1 35  1  0
  1 36  1  0
  1 37  1  0
  3 38  1  0
  3 39  1  0
  3 40  1  0
  4 41  1  0
  5 42  1  0
  5 43  1  0
  6 44  1  0
 10 45  1  0
 13 46  1  0
 14 47  1  0
 16 48  1  0
 22 49  1  0
 23 50  1  0
 23 51  1  0
 24 52  1  0
 24 53  1  0
 25 54  1  0
 28 55  1  0
 30 56  1  0
 32 57  1  0
 34 58  1  0
M  END
$$$$

     RDKit          3D

 58 61  0  0  0  0  0  0  0  0999 V2000
    5.5277   -1.6926   -0.4518 C   0  0  0  0  0  0  0  0  0  0  0  0
    4.4264   -0.7537   -0.9730 C   0  0  0  0  0  0  0  0  0  0  0  0
    4.4999   -0.7085   -2.5133 C   0  0  0  0  0  0  0  0  0  0  0  0
    3.1861   -1.2835   -0.5657 O   0  0  0  0  0  0  0  0  0  0  0  0
    4.6369    0.6486   -0.3389 C   0  0  0  0  0  0  0  0  0  0  0  0
    3.6951    1.6476   -0.8594 N   0  0  0  0  0  0  0  0  0  0  0  0
    2.5758    2.1878   -0.1322 C   0  0  0  0  0  0  0  0  0  0  0  0
    1.6835    2.8058   -0.7735 O   0  0  0  0  0  0  0  0  0  0  0  0
    2.4136    2.0152    1.3368 C   0  0  0  0  0  0  0  0  0  0  0  0
    3.4716    2.3405    2.2086 C   0  0  0  0  0  0  0  0  0  0  0  0
    4.6112    2.9094    1.7341 F   0  0  0  0  0  0  0  0  0  0  0  0
    3.3594    2.0895    3.5786 C   0  0  0  0  0  0  0  0  0  0  0  0
    2.1874    1.5414    4.1008 C   0  0  0  0  0  0  0  0  0  0  0  0
    2.0842    1.3035    5.4326 F   0  0  0  0  0  0  0  0  0  0  0  0
    1.1056    1.2762    3.2591 C   0  0  0  0  0  0  0  0  0  0  0  0
    1.2010    1.5246    1.8807 C   0  0  0  0  0  0  0  0  0  0  0  0
    0.0339    1.3847    1.0609 N   0  0  0  0  0  0  0  0  0  0  0  0
   -0.6973    0.1539    0.9169 C   0  0  0  0  0  0  0  0  0  0  0  0
   -0.2261   -0.9107    1.3959 O   0  0  0  0  0  0  0  0  0  0  0  0
   -1.9446    0.1378    0.1147 C   0  0  0  0  0  0  0  0  0  0  0  0
   -2.1011    1.1046   -0.8297 N   0  0  0  0  0  0  0  0  0  0  0  0
   -3.1910    1.1909   -1.6332 C   0  0  0  0  0  0  0  0  0  0  0  0
   -3.2236    2.3211   -2.6427 C   0  0  0  0  0  0  0  0  0  0  0  0
   -4.5177    3.1188   -2.6914 C   0  0  0  0  0  0  0  0  0  0  0  0
   -4.1367    2.2156   -3.8570 C   0  0  0  0  0  0  0  0  0  0  0  0
   -4.2115    0.2381   -1.4675 C   0  0  0  0  0  0  0  0  0  0  0  0
   -4.0721   -0.7323   -0.5305 N   0  0  0  0  0  0  0  0  0  0  0  0
   -2.9680   -0.8294    0.2638 C   0  0  0  0  0  0  0  0  0  0  0  0
   -2.9258   -1.8399    1.2882 N   0  0  0  0  0  0  0  0  0  0  0  0
   -3.6969   -3.0551    1.2514 C   0  0  0  0  0  0  0  0  0  0  0  0
   -4.0889   -3.6746    2.4460 C   0  0  0  0  0  0  0  0  0  0  0  0
   -4.8067   -4.8257    2.4150 N   0  0  0  0  0  0  0  0  0  0  0  0
   -5.1472   -5.4059    1.2357 C   0  0  0  0  0  0  0  0  0  0  0  0
   -4.7560   -4.8433    0.0640 N   0  0  0  0  0  0  0  0  0  0  0  0
   -4.0375   -3.6905    0.0467 C   0  0  0  0  0  0  0  0  0  0  0  0
    5.3827   -2.7210   -0.8476 H   0  0  0  0  0  0  0  0  0  0  0  0
    5.4995   -1.7467    0.6572 H   0  0  0  0  0  0  0  0  0  0  0  0
    6.5351   -1.3368   -0.7626 H   0  0  0  0  0  0  0  0  0  0  0  0
    4.4500   -1.7380   -2.9332 H   0  0  0  0  0  0  0  0  0  0  0  0
    3.6481   -0.1378   -2.9365 H   0  0  0  0  0  0  0  0  0  0  0  0
    5.4436   -0.2264   -2.8536 H   0  0  0  0  0  0  0  0  0  0  0  0
    2.4681   -0.7088   -0.9391 H   0  0  0  0  0  0  0  0  0  0  0  0
    5.6721    1.0078   -0.5397 H   0  0  0  0  0  0  0  0  0  0  0  0
    4.5389    0.5358    0.7583 H   0  0  0  0  0  0  0  0  0  0  0  0
    3.7982    1.9343   -1.8631 H   0  0  0  0  0  0  0  0  0  0  0  0
    4.1840    2.3280    4.2379 H   0  0  0  0  0  0  0  0  0  0  0  0
    0.1777    0.9082    3.6813 H   0  0  0  0  0  0  0  0  0  0  0  0
   -0.3359    2.2491    0.6073 H   0  0  0  0  0  0  0  0  0  0  0  0
   -2.3082    2.9376   -2.7855 H   0  0  0  0  0  0  0  0  0  0  0  0
   -5.3699    2.7350   -2.0881 H   0  0  0  0  0  0  0  0  0  0  0  0
   -4.3847    4.2004   -2.9054 H   0  0  0  0  0  0  0  0  0  0  0  0
   -4.7591    1.3035   -3.9587 H   0  0  0  0  0  0  0  0  0  0  0  0
   -3.7776    2.7728   -4.7484 H   0  0  0  0  0  0  0  0  0  0  0  0
   -5.1177    0.2615   -2.0539 H   0  0  0  0  0  0  0  0  0  0  0  0
   -2.4178   -1.6263    2.1766 H   0  0  0  0  0  0  0  0  0  0  0  0
   -3.8332   -3.2344    3.4005 H   0  0  0  0  0  0  0  0  0  0  0  0
   -5.7206   -6.3228    1.2291 H   0  0  0  0  0  0  0  0  0  0  0  0
   -3.7238   -3.2851   -0.9056 H   0  0  0  0  0  0  0  0  0  0  0  0
  1  2  1  0
  2  3  1  0
  2  4  1  0
  2  5  1  0
  5  6  1  0
  6  7  1  0
  7  8  2  0
  7  9  1  0
  9 10  2  0
 10 11  1  0
 10 12  1  0
 12 13  2  0
 13 14  1  0
 13 15  1  0
 15 16  2  0
 16 17  1  0
 17 18  1  0
 18 19  2  0
 18 20  1  0
 20 21  2  0
 21 22  1  0
 22 23  1  0
 23 24  1  0
 24 25  1  0
 22 26  2  0
 26 27  1  0
 27 28  2  0
 28 29  1  0
 29 30  1  0
 30 31  2  0
 31 32  1  0
 32 33  2  0
 33 34  1  0
 34 35  2  0
 16  9  1  0
 28 20  1  0
 35 30  1  0
 25 23  1  0
  1 36  1  0
  1 37  1  0
  1 38  1  0
  3 39  1  0
  3 40  1  0
  3 41  1  0
  4 42  1  0
  5 43  1  0
  5 44  1  0
  6 45  1  0
 12 46  1  0
 15 47  1  0
 17 48  1  0
 23 49  1  0
 24 50  1  0
 24 51  1  0
 25 52  1  0
 25 53  1  0
 26 54  1  0
 29 55  1  0
 31 56  1  0
 33 57  1  0
 35 58  1  0
M  END
$$$$

     RDKit          3D

 59 63  0  0  0  0  0  0  0  0999 V2000
    0.8662    1.0627   -3.9461 C   0  0  0  0  0  0  0  0  0  0  0  0
    0.2534   -0.1002   -3.3112 N   0  0  0  0  0  0  0  0  0  0  0  0
   -0.8719   -0.6480   -3.7524 N   0  0  0  0  0  0  0  0  0  0  0  0
   -1.1266   -1.7414   -3.0059 C   0  0  0  0  0  0  0  0  0  0  0  0
   -0.1114   -1.8931   -2.0873 C   0  0  0  0  0  0  0  0  0  0  0  0
   -0.0338   -2.8938   -1.0694 N   0  0  0  0  0  0  0  0  0  0  0  0
   -0.9853   -2.9353   -0.0004 C   0  0  0  0  0  0  0  0  0  0  0  0
   -1.3049   -4.0461    0.5020 O   0  0  0  0  0  0  0  0  0  0  0  0
   -1.5350   -1.6851    0.5600 C   0  0  0  0  0  0  0  0  0  0  0  0
   -0.6947   -0.6294    0.7244 N   0  0  0  0  0  0  0  0  0  0  0  0
   -1.0970    0.5543    1.2556 C   0  0  0  0  0  0  0  0  0  0  0  0
   -0.0541    1.6414    1.4039 C   0  0  0  0  0  0  0  0  0  0  0  0
   -0.2617    2.7215    2.4567 C   0  0  0  0  0  0  0  0  0  0  0  0
   -0.4831    3.0383    0.9828 C   0  0  0  0  0  0  0  0  0  0  0  0
   -2.4462    0.6914    1.6273 C   0  0  0  0  0  0  0  0  0  0  0  0
   -3.2929   -0.3578    1.4664 N   0  0  0  0  0  0  0  0  0  0  0  0
   -2.8795   -1.5515    0.9591 C   0  0  0  0  0  0  0  0  0  0  0  0
   -3.8325   -2.6084    0.7491 N   0  0  0  0  0  0  0  0  0  0  0  0
   -5.0398   -2.7562    1.5171 C   0  0  0  0  0  0  0  0  0  0  0  0
   -5.1323   -2.3277    2.8507 C   0  0  0  0  0  0  0  0  0  0  0  0
   -6.2876   -2.5058    3.5428 N   0  0  0  0  0  0  0  0  0  0  0  0
   -7.3623   -3.1033    2.9677 C   0  0  0  0  0  0  0  0  0  0  0  0
   -7.2882   -3.5489    1.6876 N   0  0  0  0  0  0  0  0  0  0  0  0
   -6.1535   -3.3909    0.9575 C   0  0  0  0  0  0  0  0  0  0  0  0
    0.7444   -0.8312   -2.2831 C   0  0  0  0  0  0  0  0  0  0  0  0
    1.9677   -0.5468   -1.5090 C   0  0  0  0  0  0  0  0  0  0  0  0
    2.6764   -1.5069   -1.1041 O   0  0  0  0  0  0  0  0  0  0  0  0
    2.3280    0.8027   -1.1814 N   0  0  0  0  0  0  0  0  0  0  0  0
    3.6178    1.1375   -0.5691 C   0  0  0  0  0  0  0  0  0  0  0  0
    3.6612    2.5873   -0.0995 C   0  0  0  0  0  0  0  0  0  0  0  0
    5.1342    2.9578   -0.1107 C   0  0  0  0  0  0  0  0  0  0  0  0
    5.7747    2.1243   -1.2203 C   0  0  0  0  0  0  0  0  0  0  0  0
    4.7664    1.0233   -1.5808 C   0  0  0  0  0  0  0  0  0  0  0  0
    5.3554   -0.2553   -1.5670 O   0  0  0  0  0  0  0  0  0  0  0  0
    1.9497    0.8819   -4.1092 H   0  0  0  0  0  0  0  0  0  0  0  0
    0.7203    1.9624   -3.3147 H   0  0  0  0  0  0  0  0  0  0  0  0
    0.3899    1.2538   -4.9318 H   0  0  0  0  0  0  0  0  0  0  0  0
   -1.9893   -2.3828   -3.1282 H   0  0  0  0  0  0  0  0  0  0  0  0
    0.5869   -3.7180   -1.2332 H   0  0  0  0  0  0  0  0  0  0  0  0
    1.0092    1.3938    1.2036 H   0  0  0  0  0  0  0  0  0  0  0  0
   -1.1859    2.6734    3.0654 H   0  0  0  0  0  0  0  0  0  0  0  0
    0.6797    3.1478    2.8652 H   0  0  0  0  0  0  0  0  0  0  0  0
    0.3269    3.6461    0.5278 H   0  0  0  0  0  0  0  0  0  0  0  0
   -1.5487    3.1687    0.7006 H   0  0  0  0  0  0  0  0  0  0  0  0
   -2.8391    1.6146    2.0266 H   0  0  0  0  0  0  0  0  0  0  0  0
   -3.6944   -3.2449   -0.0675 H   0  0  0  0  0  0  0  0  0  0  0  0
   -4.2883   -1.8709    3.3482 H   0  0  0  0  0  0  0  0  0  0  0  0
   -8.2730   -3.2374    3.5348 H   0  0  0  0  0  0  0  0  0  0  0  0
   -6.1225   -3.7530   -0.0618 H   0  0  0  0  0  0  0  0  0  0  0  0
    1.5973    1.5432   -1.2702 H   0  0  0  0  0  0  0  0  0  0  0  0
    3.7981    0.4798    0.3129 H   0  0  0  0  0  0  0  0  0  0  0  0
    3.2216    2.7014    0.9151 H   0  0  0  0  0  0  0  0  0  0  0  0
    3.1185    3.2489   -0.8124 H   0  0  0  0  0  0  0  0  0  0  0  0
    5.5898    2.6893    0.8692 H   0  0  0  0  0  0  0  0  0  0  0  0
    5.2718    4.0474   -0.2875 H   0  0  0  0  0  0  0  0  0  0  0  0
    6.7450    1.7041   -0.8707 H   0  0  0  0  0  0  0  0  0  0  0  0
    5.9718    2.7645   -2.1108 H   0  0  0  0  0  0  0  0  0  0  0  0
    4.3779    1.2213   -2.6065 H   0  0  0  0  0  0  0  0  0  0  0  0
    5.7154   -0.4150   -0.6551 H   0  0  0  0  0  0  0  0  0  0  0  0
  1  2  1  0
  2  3  1  0
  3  4  2  0
  4  5  1  0
  5  6  1  0
  6  7  1  0
  7  8  2  0
  7  9  1  0
  9 10  2  0
 10 11  1  0
 11 12  1  0
 12 13  1  0
 13 14  1  0
 11 15  2  0
 15 16  1  0
 16 17  2  0
 17 18  1  0
 18 19  1  0
 19 20  2  0
 20 21  1  0
 21 22  2  0
 22 23  1  0
 23 24  2  0
  5 25  2  0
 25 26  1  0
 26 27  2  0
 26 28  1  0
 28 29  1  0
 29 30  1  0
 30 31  1  0
 31 32  1  0
 32 33  1  0
 33 34  1  0
 25  2  1  0
 33 29  1  0
 17  9  1  0
 24 19  1  0
 14 12  1  0
  1 35  1  0
  1 36  1  0
  1 37  1  0
  4 38  1  0
  6 39  1  0
 12 40  1  0
 13 41  1  0
 13 42  1  0
 14 43  1  0
 14 44  1  0
 15 45  1  0
 18 46  1  0
 20 47  1  0
 22 48  1  0
 24 49  1  0
 28 50  1  0
 29 51  1  0
 30 52  1  0
 30 53  1  0
 31 54  1  0
 31 55  1  0
 32 56  1  0
 32 57  1  0
 33 58  1  0
 34 59  1  0
M  END
$$$$

     RDKit          3D

 57 60  0  0  0  0  0  0  0  0999 V2000
    1.9771   -4.6084   -2.3059 C   0  0  0  0  0  0  0  0  0  0  0  0
    2.4437   -3.3301   -1.7824 N   0  0  0  0  0  0  0  0  0  0  0  0
    1.7037   -2.6095   -0.7858 C   0  0  0  0  0  0  0  0  0  0  0  0
    0.5882   -3.0503   -0.3943 O   0  0  0  0  0  0  0  0  0  0  0  0
    2.2455   -1.3599   -0.2004 C   0  0  0  0  0  0  0  0  0  0  0  0
    3.6237   -1.2701    0.0680 C   0  0  0  0  0  0  0  0  0  0  0  0
    4.1671   -0.1258    0.6695 C   0  0  0  0  0  0  0  0  0  0  0  0
    5.6479   -0.0312    0.9271 C   0  0  0  0  0  0  0  0  0  0  0  0
    6.3704    0.5626   -0.2895 C   0  0  0  0  0  0  0  0  0  0  0  0
    7.8542    0.6887   -0.0888 C   0  0  0  0  0  0  0  0  0  0  0  0
    8.4011    0.3365    0.9915 O   0  0  0  0  0  0  0  0  0  0  0  0
    8.6342    1.2057   -1.1178 O   0  0  0  0  0  0  0  0  0  0  0  0
    3.3285    0.9504    0.9821 C   0  0  0  0  0  0  0  0  0  0  0  0
    1.9607    0.8765    0.7208 C   0  0  0  0  0  0  0  0  0  0  0  0
    1.4016   -0.2750    0.1406 C   0  0  0  0  0  0  0  0  0  0  0  0
    0.0015   -0.2985   -0.1903 N   0  0  0  0  0  0  0  0  0  0  0  0
   -1.0212    0.1993    0.6883 C   0  0  0  0  0  0  0  0  0  0  0  0
   -0.7414    0.4592    1.8904 O   0  0  0  0  0  0  0  0  0  0  0  0
   -2.4134    0.3413    0.2040 C   0  0  0  0  0  0  0  0  0  0  0  0
   -2.8215   -0.4316   -0.8397 N   0  0  0  0  0  0  0  0  0  0  0  0
   -4.0911   -0.3866   -1.3214 C   0  0  0  0  0  0  0  0  0  0  0  0
   -4.5028   -1.2856   -2.4497 C   0  0  0  0  0  0  0  0  0  0  0  0
   -4.8821   -0.5522   -3.7281 C   0  0  0  0  0  0  0  0  0  0  0  0
   -3.5634   -1.3006   -3.6474 C   0  0  0  0  0  0  0  0  0  0  0  0
   -5.0194    0.4552   -0.7067 C   0  0  0  0  0  0  0  0  0  0  0  0
   -4.6242    1.2411    0.3260 N   0  0  0  0  0  0  0  0  0  0  0  0
   -3.3498    1.2153    0.8046 C   0  0  0  0  0  0  0  0  0  0  0  0
   -2.9650    2.1387    1.8365 N   0  0  0  0  0  0  0  0  0  0  0  0
   -3.8581    2.5963    2.8670 C   0  0  0  0  0  0  0  0  0  0  0  0
   -4.9428    1.8239    3.3107 C   0  0  0  0  0  0  0  0  0  0  0  0
   -5.7449    2.2856    4.3050 N   0  0  0  0  0  0  0  0  0  0  0  0
   -5.5112    3.4888    4.8892 C   0  0  0  0  0  0  0  0  0  0  0  0
   -4.4567    4.2460    4.4900 N   0  0  0  0  0  0  0  0  0  0  0  0
   -3.6276    3.8226    3.5010 C   0  0  0  0  0  0  0  0  0  0  0  0
    1.9079   -5.3500   -1.4818 H   0  0  0  0  0  0  0  0  0  0  0  0
    0.9791   -4.4813   -2.7771 H   0  0  0  0  0  0  0  0  0  0  0  0
    2.6895   -4.9859   -3.0696 H   0  0  0  0  0  0  0  0  0  0  0  0
    3.3222   -2.9224   -2.1748 H   0  0  0  0  0  0  0  0  0  0  0  0
    4.2773   -2.1014   -0.1672 H   0  0  0  0  0  0  0  0  0  0  0  0
    6.0555   -1.0422    1.1488 H   0  0  0  0  0  0  0  0  0  0  0  0
    5.8326    0.6056    1.8203 H   0  0  0  0  0  0  0  0  0  0  0  0
    6.1907   -0.0839   -1.1754 H   0  0  0  0  0  0  0  0  0  0  0  0
    5.9601    1.5725   -0.5058 H   0  0  0  0  0  0  0  0  0  0  0  0
    9.6376    1.3005   -1.0125 H   0  0  0  0  0  0  0  0  0  0  0  0
    3.7362    1.8527    1.4212 H   0  0  0  0  0  0  0  0  0  0  0  0
    1.3400    1.7345    0.9446 H   0  0  0  0  0  0  0  0  0  0  0  0
   -0.2798   -0.7100   -1.1074 H   0  0  0  0  0  0  0  0  0  0  0  0
   -5.0602   -2.2247   -2.2477 H   0  0  0  0  0  0  0  0  0  0  0  0
   -5.6487   -1.0632   -4.3470 H   0  0  0  0  0  0  0  0  0  0  0  0
   -4.7622    0.5534   -3.7205 H   0  0  0  0  0  0  0  0  0  0  0  0
   -2.6728   -0.6375   -3.5843 H   0  0  0  0  0  0  0  0  0  0  0  0
   -3.5527   -2.2583   -4.2098 H   0  0  0  0  0  0  0  0  0  0  0  0
   -6.0439    0.4977   -1.0532 H   0  0  0  0  0  0  0  0  0  0  0  0
   -2.0244    2.5897    1.7676 H   0  0  0  0  0  0  0  0  0  0  0  0
   -5.1422    0.8497    2.8859 H   0  0  0  0  0  0  0  0  0  0  0  0
   -6.1613    3.8412    5.6783 H   0  0  0  0  0  0  0  0  0  0  0  0
   -2.7930    4.4447    3.2035 H   0  0  0  0  0  0  0  0  0  0  0  0
  1  2  1  0
  2  3  1  0
  3  4  2  0
  3  5  1  0
  5  6  2  0
  6  7  1  0
  7  8  1  0
  8  9  1  0
  9 10  1  0
 10 11  2  0
 10 12  1  0
  7 13  2  0
 13 14  1  0
 14 15  2  0
 15 16  1  0
 16 17  1  0
 17 18  2  0
 17 19  1  0
 19 20  2  0
 20 21  1  0
 21 22  1  0
 22 23  1  0
 23 24  1  0
 21 25  2  0
 25 26  1  0
 26 27  2  0
 27 28  1  0
 28 29  1  0
 29 30  2  0
 30 31  1  0
 31 32  2  0
 32 33  1  0
 33 34  2  0
 15  5  1  0
 27 19  1  0
 34 29  1  0
 24 22  1  0
  1 35  1  0
  1 36  1  0
  1 37  1  0
  2 38  1  0
  6 39  1  0
  8 40  1  0
  8 41  1  0
  9 42  1  0
  9 43  1  0
 12 44  1  0
 13 45  1  0
 14 46  1  0
 16 47  1  0
 22 48  1  0
 23 49  1  0
 23 50  1  0
 24 51  1  0
 24 52  1  0
 25 53  1  0
 28 54  1  0
 30 55  1  0
 32 56  1  0
 34 57  1  0
M  END
$$$$

     RDKit          3D

 66 70  0  0  0  0  0  0  0  0999 V2000
    7.4212    0.4173   -3.4425 C   0  0  0  0  0  0  0  0  0  0  0  0
    7.9940   -0.4081   -2.2951 C   0  0  0  0  0  0  0  0  0  0  0  0
    7.0105   -0.5523   -1.2226 N   0  0  0  0  0  0  0  0  0  0  0  0
    6.6070    0.5571   -0.3986 C   0  0  0  0  0  0  0  0  0  0  0  0
    7.4335    1.6361   -0.3019 N   0  0  0  0  0  0  0  0  0  0  0  0
    7.1466    2.7126    0.4718 C   0  0  0  0  0  0  0  0  0  0  0  0
    5.9692    2.7476    1.2124 C   0  0  0  0  0  0  0  0  0  0  0  0
    5.0798    1.6697    1.1426 C   0  0  0  0  0  0  0  0  0  0  0  0
    3.8848    1.6991    1.8740 C   0  0  0  0  0  0  0  0  0  0  0  0
    2.9827    0.6391    1.7930 C   0  0  0  0  0  0  0  0  0  0  0  0
    3.2510   -0.4633    0.9683 C   0  0  0  0  0  0  0  0  0  0  0  0
    2.2870   -1.5856    0.8831 C   0  0  0  0  0  0  0  0  0  0  0  0
    2.7064   -2.7451    0.6148 O   0  0  0  0  0  0  0  0  0  0  0  0
    0.8824   -1.3783    1.1200 N   0  0  0  0  0  0  0  0  0  0  0  0
    0.1594   -0.3628    0.3460 C   0  0  0  0  0  0  0  0  0  0  0  0
   -0.9663    0.2582    1.1850 C   0  0  0  0  0  0  0  0  0  0  0  0
   -1.8728   -0.7940    1.8813 C   0  0  0  0  0  0  0  0  0  0  0  0
   -0.9821   -1.7953    2.6609 C   0  0  0  0  0  0  0  0  0  0  0  0
    0.1019   -2.4266    1.7819 C   0  0  0  0  0  0  0  0  0  0  0  0
   -2.7551   -1.5646    0.8303 C   0  0  0  0  0  0  0  0  0  0  0  0
   -3.9039   -0.7205    0.3691 C   0  0  0  0  0  0  0  0  0  0  0  0
   -4.6912   -0.8032   -0.7552 C   0  0  0  0  0  0  0  0  0  0  0  0
   -5.6781    0.1212   -0.6392 N   0  0  0  0  0  0  0  0  0  0  0  0
   -6.7345    0.3887   -1.6355 C   0  0  0  0  0  0  0  0  0  0  0  0
   -7.7022    1.4774   -1.1233 C   0  0  0  0  0  0  0  0  0  0  0  0
   -7.5361   -0.9006   -1.8980 C   0  0  0  0  0  0  0  0  0  0  0  0
   -6.0884    0.8757   -2.9460 C   0  0  0  0  0  0  0  0  0  0  0  0
   -5.5514    0.7691    0.5156 N   0  0  0  0  0  0  0  0  0  0  0  0
   -4.4733    0.2524    1.1298 C   0  0  0  0  0  0  0  0  0  0  0  0
   -3.9385    0.5878    2.4390 C   0  0  0  0  0  0  0  0  0  0  0  0
   -4.5188    1.4118    3.1950 O   0  0  0  0  0  0  0  0  0  0  0  0
   -2.7339   -0.0756    2.8533 N   0  0  0  0  0  0  0  0  0  0  0  0
    4.4531   -0.5043    0.2407 C   0  0  0  0  0  0  0  0  0  0  0  0
    5.3861    0.5516    0.3253 C   0  0  0  0  0  0  0  0  0  0  0  0
    6.4989   -0.0625   -3.8338 H   0  0  0  0  0  0  0  0  0  0  0  0
    7.1797    1.4443   -3.0984 H   0  0  0  0  0  0  0  0  0  0  0  0
    8.1671    0.4840   -4.2624 H   0  0  0  0  0  0  0  0  0  0  0  0
    8.9178    0.0694   -1.9049 H   0  0  0  0  0  0  0  0  0  0  0  0
    8.2674   -1.4136   -2.6810 H   0  0  0  0  0  0  0  0  0  0  0  0
    6.6800   -1.5184   -1.0085 H   0  0  0  0  0  0  0  0  0  0  0  0
    7.8380    3.5434    0.5144 H   0  0  0  0  0  0  0  0  0  0  0  0
    5.7520    3.6131    1.8280 H   0  0  0  0  0  0  0  0  0  0  0  0
    3.6478    2.5438    2.5101 H   0  0  0  0  0  0  0  0  0  0  0  0
    2.0743    0.6793    2.3809 H   0  0  0  0  0  0  0  0  0  0  0  0
    0.8430    0.4496    0.0185 H   0  0  0  0  0  0  0  0  0  0  0  0
   -0.2496   -0.8242   -0.5765 H   0  0  0  0  0  0  0  0  0  0  0  0
   -1.5763    0.9233    0.5360 H   0  0  0  0  0  0  0  0  0  0  0  0
   -0.4993    0.9026    1.9628 H   0  0  0  0  0  0  0  0  0  0  0  0
   -1.6071   -2.5964    3.1111 H   0  0  0  0  0  0  0  0  0  0  0  0
   -0.4752   -1.2663    3.4982 H   0  0  0  0  0  0  0  0  0  0  0  0
    0.7591   -3.0475    2.4302 H   0  0  0  0  0  0  0  0  0  0  0  0
   -0.3526   -3.0942    1.0187 H   0  0  0  0  0  0  0  0  0  0  0  0
   -3.1838   -2.4785    1.2953 H   0  0  0  0  0  0  0  0  0  0  0  0
   -2.1656   -1.8910   -0.0498 H   0  0  0  0  0  0  0  0  0  0  0  0
   -4.5639   -1.4889   -1.5825 H   0  0  0  0  0  0  0  0  0  0  0  0
   -8.4998    1.6801   -1.8706 H   0  0  0  0  0  0  0  0  0  0  0  0
   -7.1565    2.4265   -0.9328 H   0  0  0  0  0  0  0  0  0  0  0  0
   -8.1863    1.1531   -0.1769 H   0  0  0  0  0  0  0  0  0  0  0  0
   -7.9665   -1.2854   -0.9483 H   0  0  0  0  0  0  0  0  0  0  0  0
   -8.3672   -0.7091   -2.6111 H   0  0  0  0  0  0  0  0  0  0  0  0
   -6.8871   -1.6911   -2.3305 H   0  0  0  0  0  0  0  0  0  0  0  0
   -5.4854    1.7910   -2.7600 H   0  0  0  0  0  0  0  0  0  0  0  0
   -5.4174    0.0974   -3.3670 H   0  0  0  0  0  0  0  0  0  0  0  0
   -6.8647    1.1092   -3.7055 H   0  0  0  0  0  0  0  0  0  0  0  0
   -2.3776    0.1153    3.8178 H   0  0  0  0  0  0  0  0  0  0  0  0
    4.6267   -1.3507   -0.4072 H   0  0  0  0  0  0  0  0  0  0  0  0
  1  2  1  0
  2  3  1  0
  3  4  1  0
  4  5  2  0
  5  6  1  0
  6  7  2  0
  7  8  1  0
  8  9  2  0
  9 10  1  0
 10 11  2  0
 11 12  1  0
 12 13  2  0
 12 14  1  0
 14 15  1  0
 15 16  1  0
 16 17  1  0
 17 18  1  0
 18 19  1  0
 17 20  1  0
 20 21  1  0
 21 22  2  0
 22 23  1  0
 23 24  1  0
 24 25  1  0
 24 26  1  0
 24 27  1  0
 23 28  1  0
 28 29  2  0
 29 30  1  0
 30 31  2  0
 30 32  1  0
 11 33  1  0
 33 34  2  0
 34  4  1  0
 34  8  1  0
 19 14  1  0
 29 21  1  0
 32 17  1  0
  1 35  1  0
  1 36  1  0
  1 37  1  0
  2 38  1  0
  2 39  1  0
  3 40  1  0
  6 41  1  0
  7 42  1  0
  9 43  1  0
 10 44  1  0
 15 45  1  0
 15 46  1  0
 16 47  1  0
 16 48  1  0
 18 49  1  0
 18 50  1  0
 19 51  1  0
 19 52  1  0
 20 53  1  0
 20 54  1  0
 22 55  1  0
 25 56  1  0
 25 57  1  0
 25 58  1  0
 26 59  1  0
 26 60  1  0
 26 61  1  0
 27 62  1  0
 27 63  1  0
 27 64  1  0
 32 65  1  0
 33 66  1  0
M  END
$$$$

     RDKit          3D

 58 61  0  0  0  0  0  0  0  0999 V2000
    4.7880    1.1547    3.2540 C   0  0  0  0  0  0  0  0  0  0  0  0
    4.2822    1.3394    1.8109 C   0  0  0  0  0  0  0  0  0  0  0  0
    2.7750    1.6427    1.8419 C   0  0  0  0  0  0  0  0  0  0  0  0
    4.9387    2.4376    1.2195 O   0  0  0  0  0  0  0  0  0  0  0  0
    4.5529    0.0469    0.9985 C   0  0  0  0  0  0  0  0  0  0  0  0
    4.0996    0.1881   -0.3876 N   0  0  0  0  0  0  0  0  0  0  0  0
    2.9204   -0.4634   -0.8876 C   0  0  0  0  0  0  0  0  0  0  0  0
    2.2532   -1.2314   -0.1401 O   0  0  0  0  0  0  0  0  0  0  0  0
    2.4533   -0.2099   -2.2657 C   0  0  0  0  0  0  0  0  0  0  0  0
    3.3720   -0.2524   -3.3262 C   0  0  0  0  0  0  0  0  0  0  0  0
    2.9430   -0.0606   -4.6413 C   0  0  0  0  0  0  0  0  0  0  0  0
    1.5965    0.1839   -4.9108 C   0  0  0  0  0  0  0  0  0  0  0  0
    1.1908    0.3887   -6.1892 F   0  0  0  0  0  0  0  0  0  0  0  0
    0.6708    0.2402   -3.8652 C   0  0  0  0  0  0  0  0  0  0  0  0
   -0.6229    0.5411   -4.1415 F   0  0  0  0  0  0  0  0  0  0  0  0
    1.0879    0.0388   -2.5367 C   0  0  0  0  0  0  0  0  0  0  0  0
    0.1563    0.2031   -1.4556 N   0  0  0  0  0  0  0  0  0  0  0  0
   -1.0814   -0.5221   -1.3689 C   0  0  0  0  0  0  0  0  0  0  0  0
   -1.3329   -1.4283   -2.2106 O   0  0  0  0  0  0  0  0  0  0  0  0
   -2.0146   -0.2572   -0.2456 C   0  0  0  0  0  0  0  0  0  0  0  0
   -1.5489    0.4457    0.8246 N   0  0  0  0  0  0  0  0  0  0  0  0
   -2.3147    0.7027    1.9162 C   0  0  0  0  0  0  0  0  0  0  0  0
   -1.7500    1.4541    3.0877 C   0  0  0  0  0  0  0  0  0  0  0  0
   -0.6678    2.4812    2.7736 C   0  0  0  0  0  0  0  0  0  0  0  0
   -2.0839    2.9390    3.0828 C   0  0  0  0  0  0  0  0  0  0  0  0
   -3.6189    0.2040    1.9591 C   0  0  0  0  0  0  0  0  0  0  0  0
   -4.1004   -0.4984    0.9026 N   0  0  0  0  0  0  0  0  0  0  0  0
   -3.3446   -0.7450   -0.2032 C   0  0  0  0  0  0  0  0  0  0  0  0
   -3.9414   -1.4240   -1.3178 N   0  0  0  0  0  0  0  0  0  0  0  0
   -4.8524   -2.5273   -1.1735 C   0  0  0  0  0  0  0  0  0  0  0  0
   -4.8533   -3.3483   -0.0347 C   0  0  0  0  0  0  0  0  0  0  0  0
   -5.7069   -4.4024    0.0439 N   0  0  0  0  0  0  0  0  0  0  0  0
   -6.5664   -4.6818   -0.9684 C   0  0  0  0  0  0  0  0  0  0  0  0
   -6.5768   -3.9087   -2.0847 N   0  0  0  0  0  0  0  0  0  0  0  0
   -5.7383   -2.8466   -2.2080 C   0  0  0  0  0  0  0  0  0  0  0  0
    4.2478    0.3241    3.7615 H   0  0  0  0  0  0  0  0  0  0  0  0
    4.6399    2.0858    3.8388 H   0  0  0  0  0  0  0  0  0  0  0  0
    5.8704    0.9171    3.2581 H   0  0  0  0  0  0  0  0  0  0  0  0
    2.5736    2.5348    2.4715 H   0  0  0  0  0  0  0  0  0  0  0  0
    2.3992    1.8635    0.8214 H   0  0  0  0  0  0  0  0  0  0  0  0
    2.2041    0.7811    2.2526 H   0  0  0  0  0  0  0  0  0  0  0  0
    5.9109    2.2294    1.1871 H   0  0  0  0  0  0  0  0  0  0  0  0
    4.0564   -0.8171    1.4921 H   0  0  0  0  0  0  0  0  0  0  0  0
    5.6424   -0.1757    0.9925 H   0  0  0  0  0  0  0  0  0  0  0  0
    4.6006    0.8690   -1.0015 H   0  0  0  0  0  0  0  0  0  0  0  0
    4.4188   -0.4569   -3.1390 H   0  0  0  0  0  0  0  0  0  0  0  0
    3.6585   -0.1004   -5.4527 H   0  0  0  0  0  0  0  0  0  0  0  0
    0.4620    0.7843   -0.6416 H   0  0  0  0  0  0  0  0  0  0  0  0
   -1.6913    0.9714    4.0863 H   0  0  0  0  0  0  0  0  0  0  0  0
    0.0480    2.6634    3.6037 H   0  0  0  0  0  0  0  0  0  0  0  0
   -0.3858    2.6155    1.7086 H   0  0  0  0  0  0  0  0  0  0  0  0
   -2.1995    3.3904    4.0895 H   0  0  0  0  0  0  0  0  0  0  0  0
   -2.6345    3.3160    2.1941 H   0  0  0  0  0  0  0  0  0  0  0  0
   -4.2484    0.3742    2.8229 H   0  0  0  0  0  0  0  0  0  0  0  0
   -3.7674   -1.0490   -2.2795 H   0  0  0  0  0  0  0  0  0  0  0  0
   -4.1662   -3.1701    0.7809 H   0  0  0  0  0  0  0  0  0  0  0  0
   -7.2398   -5.5241   -0.8875 H   0  0  0  0  0  0  0  0  0  0  0  0
   -5.7639   -2.2505   -3.1122 H   0  0  0  0  0  0  0  0  0  0  0  0
  1  2  1  0
  2  3  1  0
  2  4  1  0
  2  5  1  0
  5  6  1  0
  6  7  1  0
  7  8  2  0
  7  9  1  0
  9 10  2  0
 10 11  1  0
 11 12  2  0
 12 13  1  0
 12 14  1  0
 14 15  1  0
 14 16  2  0
 16 17  1  0
 17 18  1  0
 18 19  2  0
 18 20  1  0
 20 21  2  0
 21 22  1  0
 22 23  1  0
 23 24  1  0
 24 25  1  0
 22 26  2  0
 26 27  1  0
 27 28  2  0
 28 29  1  0
 29 30  1  0
 30 31  2  0
 31 32  1  0
 32 33  2  0
 33 34  1  0
 34 35  2  0
 16  9  1  0
 28 20  1  0
 35 30  1  0
 25 23  1  0
  1 36  1  0
  1 37  1  0
  1 38  1  0
  3 39  1  0
  3 40  1  0
  3 41  1  0
  4 42  1  0
  5 43  1  0
  5 44  1  0
  6 45  1  0
 10 46  1  0
 11 47  1  0
 17 48  1  0
 23 49  1  0
 24 50  1  0
 24 51  1  0
 25 52  1  0
 25 53  1  0
 26 54  1  0
 29 55  1  0
 31 56  1  0
 33 57  1  0
 35 58  1  0
M  END
$$$$

     RDKit          3D

 62 67  0  0  0  0  0  0  0  0999 V2000
   -2.7107   -2.0392    2.9716 O   0  0  0  0  0  0  0  0  0  0  0  0
   -3.3083   -0.7640    2.4450 S   0  0  0  0  0  6  0  0  0  0  0  0
   -2.9983    0.3237    3.4359 O   0  0  0  0  0  0  0  0  0  0  0  0
   -2.5312   -0.3717    0.9112 C   0  0  0  0  0  0  0  0  0  0  0  0
   -2.0612   -1.3955    0.0770 C   0  0  0  0  0  0  0  0  0  0  0  0
   -1.4256   -1.0862   -1.1284 C   0  0  0  0  0  0  0  0  0  0  0  0
   -1.2255    0.2514   -1.4999 C   0  0  0  0  0  0  0  0  0  0  0  0
   -0.5543    0.5641   -2.7775 C   0  0  0  0  0  0  0  0  0  0  0  0
   -1.0792    0.0512   -3.9238 N   0  0  0  0  0  0  0  0  0  0  0  0
   -0.5367    0.3135   -5.1395 C   0  0  0  0  0  0  0  0  0  0  0  0
    0.5838    1.1349   -5.2246 C   0  0  0  0  0  0  0  0  0  0  0  0
    1.1298    1.6365   -4.0881 N   0  0  0  0  0  0  0  0  0  0  0  0
    0.6172    1.3587   -2.8563 C   0  0  0  0  0  0  0  0  0  0  0  0
    1.2823    1.9472   -1.6251 C   0  0  0  0  0  0  0  0  0  0  0  0
    2.7578    2.2191   -1.7402 C   0  0  0  0  0  0  0  0  0  0  0  0
    3.1804    1.2334   -0.7299 N   0  0  0  0  0  0  0  0  0  0  0  0
    4.3943    0.7773   -0.1362 C   0  0  0  0  0  0  0  0  0  0  0  0
    5.6217    1.3300   -0.5213 C   0  0  0  0  0  0  0  0  0  0  0  0
    6.8000    0.8710    0.0712 C   0  0  0  0  0  0  0  0  0  0  0  0
    6.7442   -0.1356    1.0433 C   0  0  0  0  0  0  0  0  0  0  0  0
    7.9075   -0.6204    1.6596 C   0  0  0  0  0  0  0  0  0  0  0  0
    7.8172   -1.6262    2.6275 C   0  0  0  0  0  0  0  0  0  0  0  0
    6.5704   -2.1514    2.9834 C   0  0  0  0  0  0  0  0  0  0  0  0
    5.4058   -1.6739    2.3737 C   0  0  0  0  0  0  0  0  0  0  0  0
    5.4858   -0.6676    1.4044 C   0  0  0  0  0  0  0  0  0  0  0  0
    4.3556   -0.2000    0.8094 N   0  0  0  0  0  0  0  0  0  0  0  0
    1.7437    0.9306   -0.6191 C   0  0  0  0  0  0  0  0  0  0  0  0
   -1.6976    1.2758   -0.6643 C   0  0  0  0  0  0  0  0  0  0  0  0
   -2.3326    0.9653    0.5410 C   0  0  0  0  0  0  0  0  0  0  0  0
   -5.0445   -0.9610    2.3269 N   0  0  0  0  0  0  0  0  0  0  0  0
   -5.4713   -2.0858    1.4700 C   0  0  0  0  0  0  0  0  0  0  0  0
   -5.6440   -1.6992   -0.0060 C   0  0  0  0  0  0  0  0  0  0  0  0
   -6.5324   -0.4688   -0.1486 C   0  0  0  0  0  0  0  0  0  0  0  0
   -5.9517    0.6875    0.6571 C   0  0  0  0  0  0  0  0  0  0  0  0
   -5.7918    0.2979    2.1318 C   0  0  0  0  0  0  0  0  0  0  0  0
   -2.1990   -2.4332    0.3525 H   0  0  0  0  0  0  0  0  0  0  0  0
   -1.0751   -1.8895   -1.7648 H   0  0  0  0  0  0  0  0  0  0  0  0
   -0.9803   -0.1046   -6.0332 H   0  0  0  0  0  0  0  0  0  0  0  0
    1.0218    1.3683   -6.1858 H   0  0  0  0  0  0  0  0  0  0  0  0
    0.7309    2.8004   -1.1749 H   0  0  0  0  0  0  0  0  0  0  0  0
    3.0218    3.2499   -1.4149 H   0  0  0  0  0  0  0  0  0  0  0  0
    3.2099    1.9740   -2.7260 H   0  0  0  0  0  0  0  0  0  0  0  0
    5.6638    2.1082   -1.2728 H   0  0  0  0  0  0  0  0  0  0  0  0
    7.7488    1.3000   -0.2281 H   0  0  0  0  0  0  0  0  0  0  0  0
    8.8802   -0.2235    1.3945 H   0  0  0  0  0  0  0  0  0  0  0  0
    8.7151   -1.9996    3.1027 H   0  0  0  0  0  0  0  0  0  0  0  0
    6.5068   -2.9295    3.7329 H   0  0  0  0  0  0  0  0  0  0  0  0
    4.4449   -2.0862    2.6556 H   0  0  0  0  0  0  0  0  0  0  0  0
    1.3710    1.1525    0.4054 H   0  0  0  0  0  0  0  0  0  0  0  0
    1.5502   -0.1258   -0.9121 H   0  0  0  0  0  0  0  0  0  0  0  0
   -1.5866    2.3138   -0.9501 H   0  0  0  0  0  0  0  0  0  0  0  0
   -2.6844    1.7677    1.1769 H   0  0  0  0  0  0  0  0  0  0  0  0
   -6.4438   -2.4656    1.8517 H   0  0  0  0  0  0  0  0  0  0  0  0
   -4.7528   -2.9300    1.5455 H   0  0  0  0  0  0  0  0  0  0  0  0
   -6.1076   -2.5486   -0.5524 H   0  0  0  0  0  0  0  0  0  0  0  0
   -4.6613   -1.5020   -0.4757 H   0  0  0  0  0  0  0  0  0  0  0  0
   -6.5941   -0.1792   -1.2197 H   0  0  0  0  0  0  0  0  0  0  0  0
   -7.5603   -0.7006    0.2080 H   0  0  0  0  0  0  0  0  0  0  0  0
   -4.9769    0.9891    0.2279 H   0  0  0  0  0  0  0  0  0  0  0  0
   -6.6334    1.5620    0.5832 H   0  0  0  0  0  0  0  0  0  0  0  0
   -6.8029    0.1764    2.5774 H   0  0  0  0  0  0  0  0  0  0  0  0
   -5.3072    1.1331    2.6804 H   0  0  0  0  0  0  0  0  0  0  0  0
  1  2  2  0
  2  3  2  0
  2  4  1  0
  4  5  2  0
  5  6  1  0
  6  7  2  0
  7  8  1  0
  8  9  2  0
  9 10  1  0
 10 11  2  0
 11 12  1  0
 12 13  2  0
 13 14  1  0
 14 15  1  0
 15 16  1  0
 16 17  1  0
 17 18  2  0
 18 19  1  0
 19 20  2  0
 20 21  1  0
 21 22  2  0
 22 23  1  0
 23 24  2  0
 24 25  1  0
 25 26  2  0
 16 27  1  0
  7 28  1  0
 28 29  2  0
  2 30  1  0
 30 31  1  0
 31 32  1  0
 32 33  1  0
 33 34  1  0
 34 35  1  0
 29  4  1  0
 35 30  1  0
 13  8  1  0
 27 14  1  0
 26 17  1  0
 25 20  1  0
  5 36  1  0
  6 37  1  0
 10 38  1  0
 11 39  1  0
 14 40  1  0
 15 41  1  0
 15 42  1  0
 18 43  1  0
 19 44  1  0
 21 45  1  0
 22 46  1  0
 23 47  1  0
 24 48  1  0
 27 49  1  0
 27 50  1  0
 28 51  1  0
 29 52  1  0
 31 53  1  0
 31 54  1  0
 32 55  1  0
 32 56  1  0
 33 57  1  0
 33 58  1  0
 34 59  1  0
 34 60  1  0
 35 61  1  0
 35 62  1  0
M  END
$$$$

     RDKit          3D

 76 80  0  0  0  0  0  0  0  0999 V2000
   -2.6388   -2.9377   -5.2100 C   0  0  0  0  0  0  0  0  0  0  0  0
   -1.4758   -2.0892   -4.7009 C   0  0  0  0  0  0  0  0  0  0  0  0
   -1.6263   -1.7771   -3.2238 C   0  0  0  0  0  0  0  0  0  0  0  0
   -0.8963   -2.5132   -2.3424 N   0  0  0  0  0  0  0  0  0  0  0  0
   -0.9320   -2.3011   -1.0031 C   0  0  0  0  0  0  0  0  0  0  0  0
   -0.2260   -3.0307   -0.2535 O   0  0  0  0  0  0  0  0  0  0  0  0
   -1.7397   -1.2842   -0.4526 C   0  0  0  0  0  0  0  0  0  0  0  0
   -1.6139   -1.0008    1.0464 C   0  0  0  0  0  0  0  0  0  0  0  0
   -0.1954   -0.6177    1.4261 C   0  0  0  0  0  0  0  0  0  0  0  0
    0.5462   -1.4748    2.2582 C   0  0  0  0  0  0  0  0  0  0  0  0
    1.8755   -1.1789    2.5773 C   0  0  0  0  0  0  0  0  0  0  0  0
    2.6346   -2.0282    3.3955 C   0  0  0  0  0  0  0  0  0  0  0  0
    3.9651   -1.7158    3.7047 C   0  0  0  0  0  0  0  0  0  0  0  0
    4.6766   -2.6003    4.5321 O   0  0  0  0  0  0  0  0  0  0  0  0
    6.0510   -2.4710    4.8954 C   0  0  0  0  0  0  0  0  0  0  0  0
    6.9531   -2.8070    3.6990 C   0  0  0  0  0  0  0  0  0  0  0  0
    7.3775   -4.2628    3.5774 C   0  0  0  0  0  0  0  0  0  0  0  0
    8.3706   -3.2180    4.0665 C   0  0  0  0  0  0  0  0  0  0  0  0
    4.5335   -0.5349    3.1861 C   0  0  0  0  0  0  0  0  0  0  0  0
    3.7821    0.3101    2.3643 C   0  0  0  0  0  0  0  0  0  0  0  0
    2.4560   -0.0077    2.0573 C   0  0  0  0  0  0  0  0  0  0  0  0
    1.7234    0.8179    1.2674 N   0  0  0  0  0  0  0  0  0  0  0  0
    0.4252    0.5620    0.9435 C   0  0  0  0  0  0  0  0  0  0  0  0
   -0.2931    1.5102    0.1390 N   0  0  0  0  0  0  0  0  0  0  0  0
    0.4016    2.4530   -0.7396 C   0  0  0  0  0  0  0  0  0  0  0  0
   -0.5484    3.5247   -1.2942 C   0  0  0  0  0  0  0  0  0  0  0  0
   -0.6747    4.6445   -0.3604 N   0  0  0  0  0  0  0  0  0  0  0  0
   -1.4898    4.6040    0.8198 C   0  0  0  0  0  0  0  0  0  0  0  0
   -1.4422    5.7341    1.7950 C   0  0  0  0  0  0  0  0  0  0  0  0
   -2.2822    3.6458    1.0209 O   0  0  0  0  0  0  0  0  0  0  0  0
   -2.6076   -0.5664   -1.3291 C   0  0  0  0  0  0  0  0  0  0  0  0
   -3.5796    0.3467   -0.8546 C   0  0  0  0  0  0  0  0  0  0  0  0
   -4.3736    1.0974   -1.7379 C   0  0  0  0  0  0  0  0  0  0  0  0
   -5.3360    2.0159   -1.2857 O   0  0  0  0  0  0  0  0  0  0  0  0
   -5.6483    2.2630    0.0820 C   0  0  0  0  0  0  0  0  0  0  0  0
   -4.2210    0.9354   -3.1145 C   0  0  0  0  0  0  0  0  0  0  0  0
   -5.0179    1.7184   -3.9657 O   0  0  0  0  0  0  0  0  0  0  0  0
   -5.0281    1.6158   -5.3877 C   0  0  0  0  0  0  0  0  0  0  0  0
   -3.3006   -0.0021   -3.6061 C   0  0  0  0  0  0  0  0  0  0  0  0
   -2.5111   -0.7810   -2.7335 C   0  0  0  0  0  0  0  0  0  0  0  0
   -2.4871   -3.1640   -6.2861 H   0  0  0  0  0  0  0  0  0  0  0  0
   -3.6054   -2.4059   -5.0946 H   0  0  0  0  0  0  0  0  0  0  0  0
   -2.6869   -3.8959   -4.6503 H   0  0  0  0  0  0  0  0  0  0  0  0
   -0.5379   -2.6598   -4.8765 H   0  0  0  0  0  0  0  0  0  0  0  0
   -1.3719   -1.1591   -5.2972 H   0  0  0  0  0  0  0  0  0  0  0  0
   -0.2732   -3.2733   -2.7004 H   0  0  0  0  0  0  0  0  0  0  0  0
   -1.9303   -1.9193    1.5871 H   0  0  0  0  0  0  0  0  0  0  0  0
   -2.2711   -0.2057    1.4327 H   0  0  0  0  0  0  0  0  0  0  0  0
    0.0930   -2.3821    2.6418 H   0  0  0  0  0  0  0  0  0  0  0  0
    2.1958   -2.9346    3.7960 H   0  0  0  0  0  0  0  0  0  0  0  0
    6.2463   -3.1556    5.7484 H   0  0  0  0  0  0  0  0  0  0  0  0
    6.2616   -1.4421    5.2571 H   0  0  0  0  0  0  0  0  0  0  0  0
    6.8641   -2.2452    2.7447 H   0  0  0  0  0  0  0  0  0  0  0  0
    7.0105   -4.9475    4.3710 H   0  0  0  0  0  0  0  0  0  0  0  0
    7.5526   -4.6017    2.5345 H   0  0  0  0  0  0  0  0  0  0  0  0
    8.5993   -3.2942    5.1524 H   0  0  0  0  0  0  0  0  0  0  0  0
    9.1421   -2.9488    3.3137 H   0  0  0  0  0  0  0  0  0  0  0  0
    5.5539   -0.2583    3.4081 H   0  0  0  0  0  0  0  0  0  0  0  0
    4.2329    1.2130    1.9702 H   0  0  0  0  0  0  0  0  0  0  0  0
   -1.3333    1.4988    0.1471 H   0  0  0  0  0  0  0  0  0  0  0  0
    1.2333    2.9485   -0.1930 H   0  0  0  0  0  0  0  0  0  0  0  0
    0.8412    1.8836   -1.5870 H   0  0  0  0  0  0  0  0  0  0  0  0
   -0.1141    3.9085   -2.2436 H   0  0  0  0  0  0  0  0  0  0  0  0
   -1.5484    3.1047   -1.5407 H   0  0  0  0  0  0  0  0  0  0  0  0
   -0.1469    5.5224   -0.5714 H   0  0  0  0  0  0  0  0  0  0  0  0
   -1.9832    6.6092    1.3763 H   0  0  0  0  0  0  0  0  0  0  0  0
   -0.3866    6.0160    1.9911 H   0  0  0  0  0  0  0  0  0  0  0  0
   -1.9157    5.4371    2.7558 H   0  0  0  0  0  0  0  0  0  0  0  0
   -3.7599    0.4738    0.1955 H   0  0  0  0  0  0  0  0  0  0  0  0
   -4.7542    2.6420    0.6186 H   0  0  0  0  0  0  0  0  0  0  0  0
   -6.0169    1.3327    0.5637 H   0  0  0  0  0  0  0  0  0  0  0  0
   -6.4466    3.0309    0.1372 H   0  0  0  0  0  0  0  0  0  0  0  0
   -5.3321    0.5912   -5.6948 H   0  0  0  0  0  0  0  0  0  0  0  0
   -5.7597    2.3419   -5.7966 H   0  0  0  0  0  0  0  0  0  0  0  0
   -4.0236    1.8599   -5.7962 H   0  0  0  0  0  0  0  0  0  0  0  0
   -3.2149   -0.1189   -4.6730 H   0  0  0  0  0  0  0  0  0  0  0  0
  1  2  1  0
  2  3  1  0
  3  4  1  0
  4  5  1  0
  5  6  2  0
  5  7  1  0
  7  8  1  0
  8  9  1  0
  9 10  2  0
 10 11  1  0
 11 12  2  0
 12 13  1  0
 13 14  1  0
 14 15  1  0
 15 16  1  0
 16 17  1  0
 17 18  1  0
 13 19  2  0
 19 20  1  0
 20 21  2  0
 21 22  1  0
 22 23  2  0
 23 24  1  0
 24 25  1  0
 25 26  1  0
 26 27  1  0
 27 28  1  0
 28 29  1  0
 28 30  2  0
  7 31  2  0
 31 32  1  0
 32 33  2  0
 33 34  1  0
 34 35  1  0
 33 36  1  0
 36 37  1  0
 37 38  1  0
 36 39  2  0
 39 40  1  0
 40  3  2  0
 23  9  1  0
 40 31  1  0
 21 11  1  0
 18 16  1  0
  1 41  1  0
  1 42  1  0
  1 43  1  0
  2 44  1  0
  2 45  1  0
  4 46  1  0
  8 47  1  0
  8 48  1  0
 10 49  1  0
 12 50  1  0
 15 51  1  0
 15 52  1  0
 16 53  1  0
 17 54  1  0
 17 55  1  0
 18 56  1  0
 18 57  1  0
 19 58  1  0
 20 59  1  0
 24 60  1  0
 25 61  1  0
 25 62  1  0
 26 63  1  0
 26 64  1  0
 27 65  1  0
 29 66  1  0
 29 67  1  0
 29 68  1  0
 32 69  1  0
 35 70  1  0
 35 71  1  0
 35 72  1  0
 38 73  1  0
 38 74  1  0
 38 75  1  0
 39 76  1  0
M  END
$$$$

     RDKit          3D

 48 51  0  0  0  0  0  0  0  0999 V2000
    4.4708    3.8917   -1.2851 C   0  0  0  0  0  0  0  0  0  0  0  0
    4.3131    2.4992   -1.7066 N   0  0  0  0  0  0  0  0  0  0  0  0
    3.7471    1.4776   -0.8662 C   0  0  0  0  0  0  0  0  0  0  0  0
    3.3023    1.7742    0.2758 O   0  0  0  0  0  0  0  0  0  0  0  0
    3.6749    0.0727   -1.3343 C   0  0  0  0  0  0  0  0  0  0  0  0
    2.5040   -0.7059   -1.1382 C   0  0  0  0  0  0  0  0  0  0  0  0
    1.3186   -0.1160   -0.5726 N   0  0  0  0  0  0  0  0  0  0  0  0
    0.4831   -0.7895    0.3867 C   0  0  0  0  0  0  0  0  0  0  0  0
    0.8620   -1.8875    0.8781 O   0  0  0  0  0  0  0  0  0  0  0  0
   -0.7951   -0.1701    0.8239 C   0  0  0  0  0  0  0  0  0  0  0  0
   -0.9866    1.1541    0.5724 N   0  0  0  0  0  0  0  0  0  0  0  0
   -2.1315    1.8107    0.8937 C   0  0  0  0  0  0  0  0  0  0  0  0
   -2.2053    3.2879    0.5659 C   0  0  0  0  0  0  0  0  0  0  0  0
   -3.5652    3.8668    0.1988 C   0  0  0  0  0  0  0  0  0  0  0  0
   -2.9448    4.1774    1.5561 C   0  0  0  0  0  0  0  0  0  0  0  0
   -3.1677    1.0816    1.5035 C   0  0  0  0  0  0  0  0  0  0  0  0
   -2.9953   -0.2395    1.7577 N   0  0  0  0  0  0  0  0  0  0  0  0
   -1.8448   -0.8929    1.4417 C   0  0  0  0  0  0  0  0  0  0  0  0
   -1.7328   -2.2896    1.7526 N   0  0  0  0  0  0  0  0  0  0  0  0
   -2.7716   -3.2460    1.4681 C   0  0  0  0  0  0  0  0  0  0  0  0
   -3.7685   -3.0053    0.5041 C   0  0  0  0  0  0  0  0  0  0  0  0
   -4.7168   -3.9455    0.2539 N   0  0  0  0  0  0  0  0  0  0  0  0
   -4.7145   -5.1304    0.9170 C   0  0  0  0  0  0  0  0  0  0  0  0
   -3.7509   -5.3960    1.8383 N   0  0  0  0  0  0  0  0  0  0  0  0
   -2.7833   -4.4841    2.1214 C   0  0  0  0  0  0  0  0  0  0  0  0
    2.4751   -2.0394   -1.5909 C   0  0  0  0  0  0  0  0  0  0  0  0
    3.5961   -2.6057   -2.1978 C   0  0  0  0  0  0  0  0  0  0  0  0
    4.7564   -1.8498   -2.3686 C   0  0  0  0  0  0  0  0  0  0  0  0
    5.8447   -2.4099   -2.9514 F   0  0  0  0  0  0  0  0  0  0  0  0
    4.7988   -0.5178   -1.9437 C   0  0  0  0  0  0  0  0  0  0  0  0
    5.9545    0.1812   -2.0903 F   0  0  0  0  0  0  0  0  0  0  0  0
    3.8974    4.5535   -1.9748 H   0  0  0  0  0  0  0  0  0  0  0  0
    4.1048    4.0525   -0.2488 H   0  0  0  0  0  0  0  0  0  0  0  0
    5.5466    4.1708   -1.3265 H   0  0  0  0  0  0  0  0  0  0  0  0
    4.6056    2.2524   -2.6801 H   0  0  0  0  0  0  0  0  0  0  0  0
    1.0767    0.8620   -0.8572 H   0  0  0  0  0  0  0  0  0  0  0  0
   -1.3384    3.7718    0.0660 H   0  0  0  0  0  0  0  0  0  0  0  0
   -4.4355    3.1802    0.2350 H   0  0  0  0  0  0  0  0  0  0  0  0
   -3.5232    4.7172   -0.5147 H   0  0  0  0  0  0  0  0  0  0  0  0
   -3.4406    3.6761    2.4133 H   0  0  0  0  0  0  0  0  0  0  0  0
   -2.5397    5.2084    1.6372 H   0  0  0  0  0  0  0  0  0  0  0  0
   -4.1034    1.5426    1.7829 H   0  0  0  0  0  0  0  0  0  0  0  0
   -0.9221   -2.5993    2.3362 H   0  0  0  0  0  0  0  0  0  0  0  0
   -3.7891   -2.0815   -0.0575 H   0  0  0  0  0  0  0  0  0  0  0  0
   -5.4769   -5.8682    0.7025 H   0  0  0  0  0  0  0  0  0  0  0  0
   -2.0261   -4.7228    2.8568 H   0  0  0  0  0  0  0  0  0  0  0  0
    1.5745   -2.6364   -1.4954 H   0  0  0  0  0  0  0  0  0  0  0  0
    3.5627   -3.6335   -2.5389 H   0  0  0  0  0  0  0  0  0  0  0  0
  1  2  1  0
  2  3  1  0
  3  4  2  0
  3  5  1  0
  5  6  2  0
  6  7  1  0
  7  8  1  0
  8  9  2  0
  8 10  1  0
 10 11  2  0
 11 12  1  0
 12 13  1  0
 13 14  1  0
 14 15  1  0
 12 16  2  0
 16 17  1  0
 17 18  2  0
 18 19  1  0
 19 20  1  0
 20 21  2  0
 21 22  1  0
 22 23  2  0
 23 24  1  0
 24 25  2  0
  6 26  1  0
 26 27  2  0
 27 28  1  0
 28 29  1  0
 28 30  2  0
 30 31  1  0
 30  5  1  0
 18 10  1  0
 25 20  1  0
 15 13  1  0
  1 32  1  0
  1 33  1  0
  1 34  1  0
  2 35  1  0
  7 36  1  0
 13 37  1  0
 14 38  1  0
 14 39  1  0
 15 40  1  0
 15 41  1  0
 16 42  1  0
 19 43  1  0
 21 44  1  0
 23 45  1  0
 25 46  1  0
 26 47  1  0
 27 48  1  0
M  END
$$$$

     RDKit          3D

 63 68  0  0  0  0  0  0  0  0999 V2000
    0.5616    8.2196    0.8604 O   0  0  0  0  0  0  0  0  0  0  0  0
   -0.6025    7.7961    0.6327 C   0  0  0  0  0  0  0  0  0  0  0  0
   -1.5456    8.6522    0.0701 O   0  0  0  0  0  0  0  0  0  0  0  0
   -0.9457    6.3676    0.9282 C   0  0  0  0  0  0  0  0  0  0  0  0
   -0.5381    5.4993   -0.1755 N   0  0  0  0  0  0  0  0  0  0  0  0
   -0.7649    4.0833   -0.1376 C   0  0  0  0  0  0  0  0  0  0  0  0
   -0.2984    3.2673   -1.1762 C   0  0  0  0  0  0  0  0  0  0  0  0
   -0.5237    1.8911   -1.1231 C   0  0  0  0  0  0  0  0  0  0  0  0
   -1.2094    1.3327   -0.0355 C   0  0  0  0  0  0  0  0  0  0  0  0
   -1.4624   -0.1221    0.0335 C   0  0  0  0  0  0  0  0  0  0  0  0
   -0.5905   -1.1778   -0.2573 C   0  0  0  0  0  0  0  0  0  0  0  0
    0.8525   -1.1140   -0.5566 C   0  0  0  0  0  0  0  0  0  0  0  0
    1.6624   -0.2029    0.0016 C   0  0  0  0  0  0  0  0  0  0  0  0
    3.1179   -0.0936   -0.2527 C   0  0  0  0  0  0  0  0  0  0  0  0
    3.8519   -1.0447   -0.9902 C   0  0  0  0  0  0  0  0  0  0  0  0
    5.2242   -0.8657   -1.1798 C   0  0  0  0  0  0  0  0  0  0  0  0
    5.8654    0.2517   -0.6362 C   0  0  0  0  0  0  0  0  0  0  0  0
    7.2423    0.4591   -0.8071 C   0  0  0  0  0  0  0  0  0  0  0  0
    7.8530    1.5860   -0.2470 C   0  0  0  0  0  0  0  0  0  0  0  0
    7.0951    2.5078    0.4826 C   0  0  0  0  0  0  0  0  0  0  0  0
    5.7221    2.3077    0.6566 C   0  0  0  0  0  0  0  0  0  0  0  0
    5.1029    1.1825    0.1003 C   0  0  0  0  0  0  0  0  0  0  0  0
    3.7687    0.9832    0.2689 N   0  0  0  0  0  0  0  0  0  0  0  0
   -1.2590   -2.3580   -0.2040 N   0  0  0  0  0  0  0  0  0  0  0  0
   -2.5172   -1.9992    0.1242 C   0  0  0  0  0  0  0  0  0  0  0  0
   -3.6094   -2.8502    0.3039 C   0  0  0  0  0  0  0  0  0  0  0  0
   -3.4858   -4.2751    0.1540 N   0  0  0  0  0  0  0  0  0  0  0  0
   -3.1187   -4.8448   -1.1450 C   0  0  0  0  0  0  0  0  0  0  0  0
   -2.4052   -6.1821   -0.9302 C   0  0  0  0  0  0  0  0  0  0  0  0
   -3.1822   -7.0403   -0.1161 O   0  0  0  0  0  0  0  0  0  0  0  0
   -3.3087   -6.4893    1.1815 C   0  0  0  0  0  0  0  0  0  0  0  0
   -4.0903   -5.1716    1.1412 C   0  0  0  0  0  0  0  0  0  0  0  0
   -4.8355   -2.2497    0.6508 C   0  0  0  0  0  0  0  0  0  0  0  0
   -4.9205   -0.8506    0.7785 C   0  0  0  0  0  0  0  0  0  0  0  0
   -3.8117   -0.0839    0.5810 N   0  0  0  0  0  0  0  0  0  0  0  0
   -2.6580   -0.6768    0.2794 N   0  0  0  0  0  0  0  0  0  0  0  0
   -1.6709    2.1845    0.9773 C   0  0  0  0  0  0  0  0  0  0  0  0
   -1.4366    3.5217    0.9061 N   0  0  0  0  0  0  0  0  0  0  0  0
   -2.4842    8.3339   -0.1403 H   0  0  0  0  0  0  0  0  0  0  0  0
   -2.0410    6.2756    1.0895 H   0  0  0  0  0  0  0  0  0  0  0  0
   -0.4282    6.0499    1.8589 H   0  0  0  0  0  0  0  0  0  0  0  0
   -0.0518    5.9100   -1.0056 H   0  0  0  0  0  0  0  0  0  0  0  0
    0.2334    3.6932   -2.0177 H   0  0  0  0  0  0  0  0  0  0  0  0
   -0.1715    1.2643   -1.9331 H   0  0  0  0  0  0  0  0  0  0  0  0
    1.2422   -1.8870   -1.2002 H   0  0  0  0  0  0  0  0  0  0  0  0
    1.2426    0.5165    0.6930 H   0  0  0  0  0  0  0  0  0  0  0  0
    3.3919   -1.9254   -1.4114 H   0  0  0  0  0  0  0  0  0  0  0  0
    5.7830   -1.6012   -1.7460 H   0  0  0  0  0  0  0  0  0  0  0  0
    7.8423   -0.2462   -1.3695 H   0  0  0  0  0  0  0  0  0  0  0  0
    8.9154    1.7452   -0.3779 H   0  0  0  0  0  0  0  0  0  0  0  0
    7.5730    3.3776    0.9144 H   0  0  0  0  0  0  0  0  0  0  0  0
    5.1428    3.0264    1.2227 H   0  0  0  0  0  0  0  0  0  0  0  0
   -4.0411   -5.0110   -1.7424 H   0  0  0  0  0  0  0  0  0  0  0  0
   -2.4551   -4.1603   -1.7134 H   0  0  0  0  0  0  0  0  0  0  0  0
   -2.2581   -6.6686   -1.9170 H   0  0  0  0  0  0  0  0  0  0  0  0
   -1.3942   -6.0195   -0.4924 H   0  0  0  0  0  0  0  0  0  0  0  0
   -2.3100   -6.3345    1.6496 H   0  0  0  0  0  0  0  0  0  0  0  0
   -3.8600   -7.2105    1.8207 H   0  0  0  0  0  0  0  0  0  0  0  0
   -5.1465   -5.3727    0.8594 H   0  0  0  0  0  0  0  0  0  0  0  0
   -4.0701   -4.7064    2.1513 H   0  0  0  0  0  0  0  0  0  0  0  0
   -5.7205   -2.8540    0.8026 H   0  0  0  0  0  0  0  0  0  0  0  0
   -5.8627   -0.3823    1.0299 H   0  0  0  0  0  0  0  0  0  0  0  0
   -2.2008    1.7858    1.8323 H   0  0  0  0  0  0  0  0  0  0  0  0
  1  2  2  0
  2  3  1  0
  2  4  1  0
  4  5  1  0
  5  6  1  0
  6  7  2  0
  7  8  1  0
  8  9  2  0
  9 10  1  0
 10 11  2  0
 11 12  1  0
 12 13  2  0
 13 14  1  0
 14 15  2  0
 15 16  1  0
 16 17  2  0
 17 18  1  0
 18 19  2  0
 19 20  1  0
 20 21  2  0
 21 22  1  0
 22 23  2  0
 11 24  1  0
 24 25  2  0
 25 26  1  0
 26 27  1  0
 27 28  1  0
 28 29  1  0
 29 30  1  0
 30 31  1  0
 31 32  1  0
 26 33  2  0
 33 34  1  0
 34 35  2  0
 35 36  1  0
  9 37  1  0
 37 38  2  0
 38  6  1  0
 36 10  1  0
 23 14  1  0
 36 25  1  0
 22 17  1  0
 32 27  1  0
  3 39  1  0
  4 40  1  0
  4 41  1  0
  5 42  1  0
  7 43  1  0
  8 44  1  0
 12 45  1  0
 13 46  1  0
 15 47  1  0
 16 48  1  0
 18 49  1  0
 19 50  1  0
 20 51  1  0
 21 52  1  0
 28 53  1  0
 28 54  1  0
 29 55  1  0
 29 56  1  0
 31 57  1  0
 31 58  1  0
 32 59  1  0
 32 60  1  0
 33 61  1  0
 34 62  1  0
 37 63  1  0
M  END
$$$$

     RDKit          3D

 51 54  0  0  0  0  0  0  0  0999 V2000
    4.7012   -3.1166    1.4088 C   0  0  0  0  0  0  0  0  0  0  0  0
    4.1741   -2.4185    0.2343 N   0  0  0  0  0  0  0  0  0  0  0  0
    4.0630   -3.1514   -1.0297 C   0  0  0  0  0  0  0  0  0  0  0  0
    3.6535   -1.0784    0.3455 C   0  0  0  0  0  0  0  0  0  0  0  0
    3.2516   -0.6519    1.4622 O   0  0  0  0  0  0  0  0  0  0  0  0
    3.5673   -0.1862   -0.8311 C   0  0  0  0  0  0  0  0  0  0  0  0
    4.7193    0.0396   -1.6021 C   0  0  0  0  0  0  0  0  0  0  0  0
    4.6819    0.9070   -2.6947 C   0  0  0  0  0  0  0  0  0  0  0  0
    3.4945    1.5557   -3.0306 C   0  0  0  0  0  0  0  0  0  0  0  0
    3.4576    2.3869   -4.1010 F   0  0  0  0  0  0  0  0  0  0  0  0
    2.3415    1.3452   -2.2709 C   0  0  0  0  0  0  0  0  0  0  0  0
    2.3667    0.4880   -1.1558 C   0  0  0  0  0  0  0  0  0  0  0  0
    1.1618    0.2335   -0.4101 N   0  0  0  0  0  0  0  0  0  0  0  0
    0.2068    1.2535   -0.0723 C   0  0  0  0  0  0  0  0  0  0  0  0
    0.4865    2.4671   -0.2621 O   0  0  0  0  0  0  0  0  0  0  0  0
   -1.0550    0.8818    0.5997 C   0  0  0  0  0  0  0  0  0  0  0  0
   -1.0067   -0.0856    1.5552 N   0  0  0  0  0  0  0  0  0  0  0  0
   -2.1043   -0.5025    2.2388 C   0  0  0  0  0  0  0  0  0  0  0  0
   -1.9109   -1.5805    3.2848 C   0  0  0  0  0  0  0  0  0  0  0  0
   -3.0538   -2.5628    3.5037 C   0  0  0  0  0  0  0  0  0  0  0  0
   -2.7636   -1.4859    4.5425 C   0  0  0  0  0  0  0  0  0  0  0  0
   -3.3400    0.0952    1.9393 C   0  0  0  0  0  0  0  0  0  0  0  0
   -3.4049    1.0466    0.9749 N   0  0  0  0  0  0  0  0  0  0  0  0
   -2.3075    1.4575    0.2824 C   0  0  0  0  0  0  0  0  0  0  0  0
   -2.4577    2.4444   -0.7557 N   0  0  0  0  0  0  0  0  0  0  0  0
   -3.6920    2.6634   -1.4645 C   0  0  0  0  0  0  0  0  0  0  0  0
   -4.5930    1.6210   -1.7335 C   0  0  0  0  0  0  0  0  0  0  0  0
   -5.7403    1.8730   -2.4163 N   0  0  0  0  0  0  0  0  0  0  0  0
   -6.0306    3.1237   -2.8579 C   0  0  0  0  0  0  0  0  0  0  0  0
   -5.1617    4.1429   -2.6345 N   0  0  0  0  0  0  0  0  0  0  0  0
   -4.0016    3.9362   -1.9575 C   0  0  0  0  0  0  0  0  0  0  0  0
    4.0298   -3.9586    1.6779 H   0  0  0  0  0  0  0  0  0  0  0  0
    4.7913   -2.4381    2.2825 H   0  0  0  0  0  0  0  0  0  0  0  0
    5.7108   -3.5152    1.1800 H   0  0  0  0  0  0  0  0  0  0  0  0
    4.7601   -2.7272   -1.7805 H   0  0  0  0  0  0  0  0  0  0  0  0
    3.0227   -3.0870   -1.4128 H   0  0  0  0  0  0  0  0  0  0  0  0
    4.3163   -4.2241   -0.8904 H   0  0  0  0  0  0  0  0  0  0  0  0
    5.6538   -0.4455   -1.3472 H   0  0  0  0  0  0  0  0  0  0  0  0
    5.5760    1.0742   -3.2816 H   0  0  0  0  0  0  0  0  0  0  0  0
    1.4218    1.8326   -2.5690 H   0  0  0  0  0  0  0  0  0  0  0  0
    0.9936   -0.7376   -0.0616 H   0  0  0  0  0  0  0  0  0  0  0  0
   -0.8940   -2.0011    3.4422 H   0  0  0  0  0  0  0  0  0  0  0  0
   -2.7309   -3.5791    3.8133 H   0  0  0  0  0  0  0  0  0  0  0  0
   -3.9817   -2.4011    2.9182 H   0  0  0  0  0  0  0  0  0  0  0  0
   -2.2721   -1.8726    5.4601 H   0  0  0  0  0  0  0  0  0  0  0  0
   -3.5157   -0.6711    4.5833 H   0  0  0  0  0  0  0  0  0  0  0  0
   -4.2495   -0.1837    2.4513 H   0  0  0  0  0  0  0  0  0  0  0  0
   -1.6794    3.1126   -0.9470 H   0  0  0  0  0  0  0  0  0  0  0  0
   -4.3797    0.6082   -1.4200 H   0  0  0  0  0  0  0  0  0  0  0  0
   -6.9507    3.3065   -3.3980 H   0  0  0  0  0  0  0  0  0  0  0  0
   -3.3260    4.7659   -1.7924 H   0  0  0  0  0  0  0  0  0  0  0  0
  1  2  1  0
  2  3  1  0
  2  4  1  0
  4  5  2  0
  4  6  1  0
  6  7  2  0
  7  8  1  0
  8  9  2  0
  9 10  1  0
  9 11  1  0
 11 12  2  0
 12 13  1  0
 13 14  1  0
 14 15  2  0
 14 16  1  0
 16 17  2  0
 17 18  1  0
 18 19  1  0
 19 20  1  0
 20 21  1  0
 18 22  2  0
 22 23  1  0
 23 24  2  0
 24 25  1  0
 25 26  1  0
 26 27  2  0
 27 28  1  0
 28 29  2  0
 29 30  1  0
 30 31  2  0
 12  6  1  0
 24 16  1  0
 31 26  1  0
 21 19  1  0
  1 32  1  0
  1 33  1  0
  1 34  1  0
  3 35  1  0
  3 36  1  0
  3 37  1  0
  7 38  1  0
  8 39  1  0
 11 40  1  0
 13 41  1  0
 19 42  1  0
 20 43  1  0
 20 44  1  0
 21 45  1  0
 21 46  1  0
 22 47  1  0
 25 48  1  0
 27 49  1  0
 29 50  1  0
 31 51  1  0
M  END
$$$$

     RDKit          3D

 69 73  0  0  0  0  0  0  0  0999 V2000
   -6.4220   -0.9872   -2.5186 C   0  0  0  0  0  0  0  0  0  0  0  0
   -7.5662   -0.6989   -1.5504 C   0  0  0  0  0  0  0  0  0  0  0  0
   -7.0505   -0.2027   -0.2697 N   0  0  0  0  0  0  0  0  0  0  0  0
   -7.4862   -0.8431    0.9738 C   0  0  0  0  0  0  0  0  0  0  0  0
   -6.3459    1.0503   -0.2148 C   0  0  0  0  0  0  0  0  0  0  0  0
   -6.9677    2.1781   -0.6564 N   0  0  0  0  0  0  0  0  0  0  0  0
   -6.3819    3.4009   -0.5918 C   0  0  0  0  0  0  0  0  0  0  0  0
   -5.1013    3.5375   -0.0594 C   0  0  0  0  0  0  0  0  0  0  0  0
   -4.4115    2.4021    0.3789 C   0  0  0  0  0  0  0  0  0  0  0  0
   -3.1087    2.5128    0.8853 C   0  0  0  0  0  0  0  0  0  0  0  0
   -2.4140    1.3734    1.2967 C   0  0  0  0  0  0  0  0  0  0  0  0
   -3.0072    0.1041    1.1999 C   0  0  0  0  0  0  0  0  0  0  0  0
   -2.2646   -1.1071    1.6170 C   0  0  0  0  0  0  0  0  0  0  0  0
   -2.9015   -2.1115    2.0362 O   0  0  0  0  0  0  0  0  0  0  0  0
   -0.8285   -1.1656    1.5293 N   0  0  0  0  0  0  0  0  0  0  0  0
   -0.1790   -0.8656    0.2497 C   0  0  0  0  0  0  0  0  0  0  0  0
    1.1863   -0.2204    0.4926 C   0  0  0  0  0  0  0  0  0  0  0  0
    2.0811   -1.0974    1.4060 C   0  0  0  0  0  0  0  0  0  0  0  0
    1.3236   -1.3926    2.7277 C   0  0  0  0  0  0  0  0  0  0  0  0
   -0.0824   -1.9718    2.5025 C   0  0  0  0  0  0  0  0  0  0  0  0
    3.3934   -0.3108    1.7444 C   0  0  0  0  0  0  0  0  0  0  0  0
    4.3140   -0.2906    0.5593 C   0  0  0  0  0  0  0  0  0  0  0  0
    5.3406    0.5586    0.2215 C   0  0  0  0  0  0  0  0  0  0  0  0
    5.9074    0.0913   -0.9211 N   0  0  0  0  0  0  0  0  0  0  0  0
    7.0984    0.6445   -1.5968 C   0  0  0  0  0  0  0  0  0  0  0  0
    8.3569    0.1930   -0.8374 C   0  0  0  0  0  0  0  0  0  0  0  0
    7.1709    0.1330   -3.0520 C   0  0  0  0  0  0  0  0  0  0  0  0
    7.0345    2.1868   -1.6263 C   0  0  0  0  0  0  0  0  0  0  0  0
    5.3117   -1.0425   -1.2828 N   0  0  0  0  0  0  0  0  0  0  0  0
    4.3356   -1.2682   -0.3881 C   0  0  0  0  0  0  0  0  0  0  0  0
    3.4161   -2.3941   -0.3225 C   0  0  0  0  0  0  0  0  0  0  0  0
    3.5205   -3.3773   -1.1010 O   0  0  0  0  0  0  0  0  0  0  0  0
    2.4094   -2.3634    0.7017 N   0  0  0  0  0  0  0  0  0  0  0  0
   -4.3167   -0.0084    0.7067 C   0  0  0  0  0  0  0  0  0  0  0  0
   -5.0339    1.1336    0.3025 C   0  0  0  0  0  0  0  0  0  0  0  0
   -5.9332   -0.0401   -2.8277 H   0  0  0  0  0  0  0  0  0  0  0  0
   -5.6685   -1.6471   -2.0361 H   0  0  0  0  0  0  0  0  0  0  0  0
   -6.8198   -1.4961   -3.4228 H   0  0  0  0  0  0  0  0  0  0  0  0
   -8.1381   -1.6417   -1.3944 H   0  0  0  0  0  0  0  0  0  0  0  0
   -8.2566    0.0497   -1.9987 H   0  0  0  0  0  0  0  0  0  0  0  0
   -7.2425   -1.9268    0.9479 H   0  0  0  0  0  0  0  0  0  0  0  0
   -8.5836   -0.7182    1.0975 H   0  0  0  0  0  0  0  0  0  0  0  0
   -6.9758   -0.3948    1.8533 H   0  0  0  0  0  0  0  0  0  0  0  0
   -6.9184    4.2716   -0.9450 H   0  0  0  0  0  0  0  0  0  0  0  0
   -4.6474    4.5193   -0.0047 H   0  0  0  0  0  0  0  0  0  0  0  0
   -2.6283    3.4790    0.9634 H   0  0  0  0  0  0  0  0  0  0  0  0
   -1.4129    1.4835    1.6944 H   0  0  0  0  0  0  0  0  0  0  0  0
   -0.7945   -0.1730   -0.3617 H   0  0  0  0  0  0  0  0  0  0  0  0
   -0.0597   -1.8055   -0.3332 H   0  0  0  0  0  0  0  0  0  0  0  0
    1.6783   -0.0525   -0.4883 H   0  0  0  0  0  0  0  0  0  0  0  0
    1.0266    0.7757    0.9602 H   0  0  0  0  0  0  0  0  0  0  0  0
    1.9122   -2.1014    3.3499 H   0  0  0  0  0  0  0  0  0  0  0  0
    1.2179   -0.4488    3.3091 H   0  0  0  0  0  0  0  0  0  0  0  0
   -0.0209   -3.0221    2.1474 H   0  0  0  0  0  0  0  0  0  0  0  0
   -0.6139   -1.9780    3.4789 H   0  0  0  0  0  0  0  0  0  0  0  0
    3.9296   -0.8099    2.5817 H   0  0  0  0  0  0  0  0  0  0  0  0
    3.1622    0.7304    2.0601 H   0  0  0  0  0  0  0  0  0  0  0  0
    5.6645    1.4265    0.7809 H   0  0  0  0  0  0  0  0  0  0  0  0
    8.3266    0.5566    0.2126 H   0  0  0  0  0  0  0  0  0  0  0  0
    9.2745    0.5917   -1.3205 H   0  0  0  0  0  0  0  0  0  0  0  0
    8.4194   -0.9168   -0.8205 H   0  0  0  0  0  0  0  0  0  0  0  0
    7.2670   -0.9736   -3.0787 H   0  0  0  0  0  0  0  0  0  0  0  0
    6.2509    0.4157   -3.6063 H   0  0  0  0  0  0  0  0  0  0  0  0
    8.0473    0.5654   -3.5790 H   0  0  0  0  0  0  0  0  0  0  0  0
    7.8799    2.6057   -2.2146 H   0  0  0  0  0  0  0  0  0  0  0  0
    7.0979    2.6133   -0.6028 H   0  0  0  0  0  0  0  0  0  0  0  0
    6.0829    2.5234   -2.0902 H   0  0  0  0  0  0  0  0  0  0  0  0
    1.9056   -3.2488    0.9253 H   0  0  0  0  0  0  0  0  0  0  0  0
   -4.7596   -0.9931    0.6178 H   0  0  0  0  0  0  0  0  0  0  0  0
  1  2  1  0
  2  3  1  0
  3  4  1  0
  3  5  1  0
  5  6  2  0
  6  7  1  0
  7  8  2  0
  8  9  1  0
  9 10  2  0
 10 11  1  0
 11 12  2  0
 12 13  1  0
 13 14  2  0
 13 15  1  0
 15 16  1  0
 16 17  1  0
 17 18  1  0
 18 19  1  0
 19 20  1  0
 18 21  1  0
 21 22  1  0
 22 23  2  0
 23 24  1  0
 24 25  1  0
 25 26  1  0
 25 27  1  0
 25 28  1  0
 24 29  1  0
 29 30  2  0
 30 31  1  0
 31 32  2  0
 31 33  1  0
 12 34  1  0
 34 35  2  0
 35  5  1  0
 35  9  1  0
 20 15  1  0
 30 22  1  0
 33 18  1  0
  1 36  1  0
  1 37  1  0
  1 38  1  0
  2 39  1  0
  2 40  1  0
  4 41  1  0
  4 42  1  0
  4 43  1  0
  7 44  1  0
  8 45  1  0
 10 46  1  0
 11 47  1  0
 16 48  1  0
 16 49  1  0
 17 50  1  0
 17 51  1  0
 19 52  1  0
 19 53  1  0
 20 54  1  0
 20 55  1  0
 21 56  1  0
 21 57  1  0
 23 58  1  0
 26 59  1  0
 26 60  1  0
 26 61  1  0
 27 62  1  0
 27 63  1  0
 27 64  1  0
 28 65  1  0
 28 66  1  0
 28 67  1  0
 33 68  1  0
 34 69  1  0
M  END
$$$$

     RDKit          3D

 48 50  0  0  0  0  0  0  0  0999 V2000
    1.0370   -1.1808   -2.5974 C   0  0  0  0  0  0  0  0  0  0  0  0
    1.3973   -1.3294   -1.1933 N   0  0  0  0  0  0  0  0  0  0  0  0
    2.2607   -0.3949   -0.5348 C   0  0  0  0  0  0  0  0  0  0  0  0
    2.6807    0.6210   -1.1521 O   0  0  0  0  0  0  0  0  0  0  0  0
    2.6312   -0.5843    0.8799 C   0  0  0  0  0  0  0  0  0  0  0  0
    2.6841    0.3920    1.8605 C   0  0  0  0  0  0  0  0  0  0  0  0
    2.2811    1.7668    1.7783 N   0  0  0  0  0  0  0  0  0  0  0  0
    1.1446    2.2315    1.0332 C   0  0  0  0  0  0  0  0  0  0  0  0
    1.0935    3.4447    0.6959 O   0  0  0  0  0  0  0  0  0  0  0  0
    0.0007    1.3404    0.7335 C   0  0  0  0  0  0  0  0  0  0  0  0
   -0.3311    0.3794    1.6378 N   0  0  0  0  0  0  0  0  0  0  0  0
   -1.3681   -0.4746    1.4452 C   0  0  0  0  0  0  0  0  0  0  0  0
   -1.6332   -1.4420    2.4237 O   0  0  0  0  0  0  0  0  0  0  0  0
   -2.6824   -2.4032    2.3417 C   0  0  0  0  0  0  0  0  0  0  0  0
   -2.6616   -3.2917    3.5787 C   0  0  0  0  0  0  0  0  0  0  0  0
   -2.8411   -2.5217    4.7137 F   0  0  0  0  0  0  0  0  0  0  0  0
   -1.4492   -3.9526    3.6631 F   0  0  0  0  0  0  0  0  0  0  0  0
   -3.6807   -4.2227    3.4985 F   0  0  0  0  0  0  0  0  0  0  0  0
   -2.1297   -0.3544    0.2741 C   0  0  0  0  0  0  0  0  0  0  0  0
   -1.8034    0.5950   -0.6384 N   0  0  0  0  0  0  0  0  0  0  0  0
   -0.7650    1.4539   -0.4478 C   0  0  0  0  0  0  0  0  0  0  0  0
   -0.3996    2.3690   -1.4951 N   0  0  0  0  0  0  0  0  0  0  0  0
   -1.3255    2.8541   -2.4821 C   0  0  0  0  0  0  0  0  0  0  0  0
   -2.6842    3.0500   -2.1936 C   0  0  0  0  0  0  0  0  0  0  0  0
   -3.5189    3.5349   -3.1494 N   0  0  0  0  0  0  0  0  0  0  0  0
   -3.0579    3.8430   -4.3891 C   0  0  0  0  0  0  0  0  0  0  0  0
   -1.7430    3.6799   -4.6858 N   0  0  0  0  0  0  0  0  0  0  0  0
   -0.8723    3.2006   -3.7597 C   0  0  0  0  0  0  0  0  0  0  0  0
    3.2066   -0.2259    2.9762 C   0  0  0  0  0  0  0  0  0  0  0  0
    3.4461   -1.5206    2.6859 N   0  0  0  0  0  0  0  0  0  0  0  0
    3.1055   -1.7294    1.4213 N   0  0  0  0  0  0  0  0  0  0  0  0
    3.2633   -3.0200    0.7592 C   0  0  0  0  0  0  0  0  0  0  0  0
    0.3413   -1.9932   -2.8959 H   0  0  0  0  0  0  0  0  0  0  0  0
    0.5355   -0.2031   -2.7572 H   0  0  0  0  0  0  0  0  0  0  0  0
    1.9496   -1.2380   -3.2275 H   0  0  0  0  0  0  0  0  0  0  0  0
    0.9613   -2.1043   -0.6456 H   0  0  0  0  0  0  0  0  0  0  0  0
    2.8181    2.4658    2.3389 H   0  0  0  0  0  0  0  0  0  0  0  0
   -3.6633   -1.8834    2.2815 H   0  0  0  0  0  0  0  0  0  0  0  0
   -2.5438   -3.0337    1.4368 H   0  0  0  0  0  0  0  0  0  0  0  0
   -2.9652   -1.0100    0.0735 H   0  0  0  0  0  0  0  0  0  0  0  0
    0.6131    2.5861   -1.6315 H   0  0  0  0  0  0  0  0  0  0  0  0
   -3.0785    2.8400   -1.2090 H   0  0  0  0  0  0  0  0  0  0  0  0
   -3.7371    4.2269   -5.1380 H   0  0  0  0  0  0  0  0  0  0  0  0
    0.1711    3.0816   -4.0216 H   0  0  0  0  0  0  0  0  0  0  0  0
    3.3877    0.2300    3.9405 H   0  0  0  0  0  0  0  0  0  0  0  0
    3.6219   -2.8779   -0.2818 H   0  0  0  0  0  0  0  0  0  0  0  0
    2.2931   -3.5579    0.7523 H   0  0  0  0  0  0  0  0  0  0  0  0
    4.0096   -3.6370    1.3028 H   0  0  0  0  0  0  0  0  0  0  0  0
  1  2  1  0
  2  3  1  0
  3  4  2  0
  3  5  1  0
  5  6  2  0
  6  7  1  0
  7  8  1  0
  8  9  2  0
  8 10  1  0
 10 11  2  0
 11 12  1  0
 12 13  1  0
 13 14  1  0
 14 15  1  0
 15 16  1  0
 15 17  1  0
 15 18  1  0
 12 19  2  0
 19 20  1  0
 20 21  2  0
 21 22  1  0
 22 23  1  0
 23 24  2  0
 24 25  1  0
 25 26  2  0
 26 27  1  0
 27 28  2  0
  6 29  1  0
 29 30  2  0
 30 31  1  0
 31 32  1  0
 31  5  1  0
 21 10  1  0
 28 23  1  0
  1 33  1  0
  1 34  1  0
  1 35  1  0
  2 36  1  0
  7 37  1  0
 14 38  1  0
 14 39  1  0
 19 40  1  0
 22 41  1  0
 24 42  1  0
 26 43  1  0
 28 44  1  0
 29 45  1  0
 32 46  1  0
 32 47  1  0
 32 48  1  0
M  END
$$$$

     RDKit          3D

 51 54  0  0  0  0  0  0  0  0999 V2000
    3.1492   -0.7735    2.8701 C   0  0  0  0  0  0  0  0  0  0  0  0
    3.2181   -0.0082    1.6223 N   0  0  0  0  0  0  0  0  0  0  0  0
    3.5037    1.4277    1.7000 C   0  0  0  0  0  0  0  0  0  0  0  0
    2.8770   -0.6262    0.3622 C   0  0  0  0  0  0  0  0  0  0  0  0
    2.1551   -1.6607    0.3491 O   0  0  0  0  0  0  0  0  0  0  0  0
    3.3538   -0.0774   -0.9289 C   0  0  0  0  0  0  0  0  0  0  0  0
    4.7193    0.2173   -1.0826 C   0  0  0  0  0  0  0  0  0  0  0  0
    5.2198    0.6455   -2.3131 C   0  0  0  0  0  0  0  0  0  0  0  0
    4.3693    0.7623   -3.4118 C   0  0  0  0  0  0  0  0  0  0  0  0
    3.0127    0.4567   -3.2839 C   0  0  0  0  0  0  0  0  0  0  0  0
    2.2000    0.5742   -4.3639 F   0  0  0  0  0  0  0  0  0  0  0  0
    2.4891    0.0499   -2.0458 C   0  0  0  0  0  0  0  0  0  0  0  0
    1.0884   -0.2559   -1.9524 N   0  0  0  0  0  0  0  0  0  0  0  0
    0.2161    0.3828   -1.0072 C   0  0  0  0  0  0  0  0  0  0  0  0
    0.6263    1.3811   -0.3559 O   0  0  0  0  0  0  0  0  0  0  0  0
   -1.1438   -0.1570   -0.7764 C   0  0  0  0  0  0  0  0  0  0  0  0
   -1.3985   -1.4405   -1.1495 N   0  0  0  0  0  0  0  0  0  0  0  0
   -2.5909   -2.0515   -0.9239 C   0  0  0  0  0  0  0  0  0  0  0  0
   -2.7417   -3.4852   -1.3879 C   0  0  0  0  0  0  0  0  0  0  0  0
   -4.1189   -3.9283   -1.8632 C   0  0  0  0  0  0  0  0  0  0  0  0
   -3.5830   -4.4115   -0.5205 C   0  0  0  0  0  0  0  0  0  0  0  0
   -3.5982   -1.3222   -0.2688 C   0  0  0  0  0  0  0  0  0  0  0  0
   -3.3617   -0.0380    0.0981 N   0  0  0  0  0  0  0  0  0  0  0  0
   -2.1678    0.5721   -0.1314 C   0  0  0  0  0  0  0  0  0  0  0  0
   -2.0108    1.9589    0.2083 N   0  0  0  0  0  0  0  0  0  0  0  0
   -2.6088    2.5613    1.3689 C   0  0  0  0  0  0  0  0  0  0  0  0
   -2.9202    1.8165    2.5165 C   0  0  0  0  0  0  0  0  0  0  0  0
   -3.4573    2.4324    3.6012 N   0  0  0  0  0  0  0  0  0  0  0  0
   -3.6961    3.7688    3.5992 C   0  0  0  0  0  0  0  0  0  0  0  0
   -3.3866    4.5137    2.5069 N   0  0  0  0  0  0  0  0  0  0  0  0
   -2.8456    3.9401    1.4012 C   0  0  0  0  0  0  0  0  0  0  0  0
    4.1146   -0.6889    3.4121 H   0  0  0  0  0  0  0  0  0  0  0  0
    2.9563   -1.8508    2.6826 H   0  0  0  0  0  0  0  0  0  0  0  0
    2.3350   -0.3731    3.5105 H   0  0  0  0  0  0  0  0  0  0  0  0
    3.5221    1.7729    2.7562 H   0  0  0  0  0  0  0  0  0  0  0  0
    4.4932    1.6502    1.2536 H   0  0  0  0  0  0  0  0  0  0  0  0
    2.7194    2.0020    1.1651 H   0  0  0  0  0  0  0  0  0  0  0  0
    5.4074    0.0815   -0.2577 H   0  0  0  0  0  0  0  0  0  0  0  0
    6.2737    0.8684   -2.4199 H   0  0  0  0  0  0  0  0  0  0  0  0
    4.7644    1.0834   -4.3667 H   0  0  0  0  0  0  0  0  0  0  0  0
    0.6651   -0.8518   -2.6991 H   0  0  0  0  0  0  0  0  0  0  0  0
   -1.8881   -3.9764   -1.9028 H   0  0  0  0  0  0  0  0  0  0  0  0
   -4.1014   -4.7060   -2.6560 H   0  0  0  0  0  0  0  0  0  0  0  0
   -4.9418   -3.1883   -1.7919 H   0  0  0  0  0  0  0  0  0  0  0  0
   -3.2535   -5.4719   -0.5281 H   0  0  0  0  0  0  0  0  0  0  0  0
   -4.0838   -3.9630    0.3621 H   0  0  0  0  0  0  0  0  0  0  0  0
   -4.5662   -1.7503   -0.0538 H   0  0  0  0  0  0  0  0  0  0  0  0
   -1.5346    2.5834   -0.4813 H   0  0  0  0  0  0  0  0  0  0  0  0
   -2.7198    0.7547    2.5617 H   0  0  0  0  0  0  0  0  0  0  0  0
   -4.1251    4.2417    4.4713 H   0  0  0  0  0  0  0  0  0  0  0  0
   -2.6053    4.5576    0.5455 H   0  0  0  0  0  0  0  0  0  0  0  0
  1  2  1  0
  2  3  1  0
  2  4  1  0
  4  5  2  0
  4  6  1  0
  6  7  2  0
  7  8  1  0
  8  9  2  0
  9 10  1  0
 10 11  1  0
 10 12  2  0
 12 13  1  0
 13 14  1  0
 14 15  2  0
 14 16  1  0
 16 17  2  0
 17 18  1  0
 18 19  1  0
 19 20  1  0
 20 21  1  0
 18 22  2  0
 22 23  1  0
 23 24  2  0
 24 25  1  0
 25 26  1  0
 26 27  2  0
 27 28  1  0
 28 29  2  0
 29 30  1  0
 30 31  2  0
 12  6  1  0
 24 16  1  0
 31 26  1  0
 21 19  1  0
  1 32  1  0
  1 33  1  0
  1 34  1  0
  3 35  1  0
  3 36  1  0
  3 37  1  0
  7 38  1  0
  8 39  1  0
  9 40  1  0
 13 41  1  0
 19 42  1  0
 20 43  1  0
 20 44  1  0
 21 45  1  0
 21 46  1  0
 22 47  1  0
 25 48  1  0
 27 49  1  0
 29 50  1  0
 31 51  1  0
M  END
$$$$

     RDKit          3D

 66 70  0  0  0  0  0  0  0  0999 V2000
    5.8583    0.4630   -4.1457 C   0  0  0  0  0  0  0  0  0  0  0  0
    5.6243   -0.6453   -3.1085 C   0  0  0  0  0  0  0  0  0  0  0  0
    6.6871   -1.7438   -3.2537 C   0  0  0  0  0  0  0  0  0  0  0  0
    4.1857   -1.2337   -3.2103 C   0  0  0  0  0  0  0  0  0  0  0  0
    3.5901   -1.2063   -1.7732 C   0  0  0  0  0  0  0  0  0  0  0  0
    3.5479   -2.6268   -1.1359 C   0  0  0  0  0  0  0  0  0  0  0  0
    2.1615   -3.2560   -1.2810 C   0  0  0  0  0  0  0  0  0  0  0  0
    1.0963   -2.3954   -0.5690 C   0  0  0  0  0  0  0  0  0  0  0  0
    1.4486   -0.9491   -0.5436 N   0  0  0  0  0  0  0  0  0  0  0  0
    0.3248   -0.0343   -0.2081 C   0  0  0  0  0  0  0  0  0  0  0  0
   -0.1055   -0.2126    1.2648 C   0  0  0  0  0  0  0  0  0  0  0  0
   -1.3887    0.5661    1.5586 C   0  0  0  0  0  0  0  0  0  0  0  0
   -2.4774    0.1514    0.6563 N   0  0  0  0  0  0  0  0  0  0  0  0
   -3.8477    0.2887    1.0827 C   0  0  0  0  0  0  0  0  0  0  0  0
   -4.7333   -0.4823    0.6223 O   0  0  0  0  0  0  0  0  0  0  0  0
   -4.2389    1.3206    2.0624 C   0  0  0  0  0  0  0  0  0  0  0  0
   -4.8516    1.0379    3.2925 C   0  0  0  0  0  0  0  0  0  0  0  0
   -5.1565   -0.2844    3.7744 N   0  0  0  0  0  0  0  0  0  0  0  0
   -5.6656   -0.5880    5.0832 C   0  0  0  0  0  0  0  0  0  0  0  0
   -5.8373   -1.9493    5.4790 N   0  0  0  0  0  0  0  0  0  0  0  0
   -5.9686    0.3293    5.8920 O   0  0  0  0  0  0  0  0  0  0  0  0
   -5.0872    2.4850    4.1437 S   0  0  0  0  0  0  0  0  0  0  0  0
   -4.4291    3.4706    2.9582 C   0  0  0  0  0  0  0  0  0  0  0  0
   -4.2939    4.8563    2.9754 C   0  0  0  0  0  0  0  0  0  0  0  0
   -3.7196    5.4809    1.8583 C   0  0  0  0  0  0  0  0  0  0  0  0
   -3.3032    4.7162    0.7516 C   0  0  0  0  0  0  0  0  0  0  0  0
   -3.4498    3.3191    0.7558 C   0  0  0  0  0  0  0  0  0  0  0  0
   -4.0107    2.6982    1.8818 C   0  0  0  0  0  0  0  0  0  0  0  0
   -2.1707   -0.6063   -0.5672 C   0  0  0  0  0  0  0  0  0  0  0  0
   -0.8702   -0.0982   -1.2092 C   0  0  0  0  0  0  0  0  0  0  0  0
    2.1881   -0.5318   -1.7538 C   0  0  0  0  0  0  0  0  0  0  0  0
    4.5934   -0.3723   -1.0531 C   0  0  0  0  0  0  0  0  0  0  0  0
    4.4634    0.0235    0.1362 O   0  0  0  0  0  0  0  0  0  0  0  0
    5.7099   -0.0905   -1.8068 O   0  0  0  0  0  0  0  0  0  0  0  0
    5.1253    1.2847   -4.0018 H   0  0  0  0  0  0  0  0  0  0  0  0
    6.8772    0.8887   -4.0319 H   0  0  0  0  0  0  0  0  0  0  0  0
    5.7489    0.0615   -5.1756 H   0  0  0  0  0  0  0  0  0  0  0  0
    6.6416   -2.1998   -4.2673 H   0  0  0  0  0  0  0  0  0  0  0  0
    6.5270   -2.5403   -2.4955 H   0  0  0  0  0  0  0  0  0  0  0  0
    7.7021   -1.3190   -3.0987 H   0  0  0  0  0  0  0  0  0  0  0  0
    4.1771   -2.2544   -3.6494 H   0  0  0  0  0  0  0  0  0  0  0  0
    3.5706   -0.6072   -3.8948 H   0  0  0  0  0  0  0  0  0  0  0  0
    3.7791   -2.5761   -0.0475 H   0  0  0  0  0  0  0  0  0  0  0  0
    4.3111   -3.2968   -1.5868 H   0  0  0  0  0  0  0  0  0  0  0  0
    2.1669   -4.2816   -0.8521 H   0  0  0  0  0  0  0  0  0  0  0  0
    1.9127   -3.3441   -2.3611 H   0  0  0  0  0  0  0  0  0  0  0  0
    1.0273   -2.7610    0.4768 H   0  0  0  0  0  0  0  0  0  0  0  0
    0.1166   -2.5776   -1.0549 H   0  0  0  0  0  0  0  0  0  0  0  0
    0.7149    1.0087   -0.2527 H   0  0  0  0  0  0  0  0  0  0  0  0
    0.7078    0.1412    1.9365 H   0  0  0  0  0  0  0  0  0  0  0  0
   -0.3003   -1.2788    1.5002 H   0  0  0  0  0  0  0  0  0  0  0  0
   -1.6750    0.3699    2.6158 H   0  0  0  0  0  0  0  0  0  0  0  0
   -1.2016    1.6545    1.4420 H   0  0  0  0  0  0  0  0  0  0  0  0
   -4.9443   -1.0950    3.1514 H   0  0  0  0  0  0  0  0  0  0  0  0
   -6.1556   -2.1810    6.4458 H   0  0  0  0  0  0  0  0  0  0  0  0
   -5.6147   -2.7277    4.8193 H   0  0  0  0  0  0  0  0  0  0  0  0
   -4.6271    5.4382    3.8247 H   0  0  0  0  0  0  0  0  0  0  0  0
   -3.6047    6.5568    1.8434 H   0  0  0  0  0  0  0  0  0  0  0  0
   -2.8690    5.2091   -0.1087 H   0  0  0  0  0  0  0  0  0  0  0  0
   -3.1346    2.7430   -0.1051 H   0  0  0  0  0  0  0  0  0  0  0  0
   -2.9911   -0.4895   -1.3081 H   0  0  0  0  0  0  0  0  0  0  0  0
   -2.0776   -1.6852   -0.3187 H   0  0  0  0  0  0  0  0  0  0  0  0
   -0.6375   -0.7167   -2.0989 H   0  0  0  0  0  0  0  0  0  0  0  0
   -1.0647    0.9274   -1.5944 H   0  0  0  0  0  0  0  0  0  0  0  0
    1.6123   -0.8271   -2.6608 H   0  0  0  0  0  0  0  0  0  0  0  0
    2.3055    0.5746   -1.7942 H   0  0  0  0  0  0  0  0  0  0  0  0
  1  2  1  0
  2  3  1  0
  2  4  1  0
  4  5  1  0
  5  6  1  0
  6  7  1  0
  7  8  1  0
  8  9  1  0
  9 10  1  0
 10 11  1  0
 11 12  1  0
 12 13  1  0
 13 14  1  0
 14 15  2  0
 14 16  1  0
 16 17  2  0
 17 18  1  0
 18 19  1  0
 19 20  1  0
 19 21  2  0
 17 22  1  0
 22 23  1  0
 23 24  2  0
 24 25  1  0
 25 26  2  0
 26 27  1  0
 27 28  2  0
 13 29  1  0
 29 30  1  0
  9 31  1  0
  5 32  1  0
 32 33  2  0
 32 34  1  0
 34  2  1  0
 31  5  1  0
 30 10  1  0
 28 16  1  0
 28 23  1  0
  1 35  1  0
  1 36  1  0
  1 37  1  0
  3 38  1  0
  3 39  1  0
  3 40  1  0
  4 41  1  0
  4 42  1  0
  6 43  1  0
  6 44  1  0
  7 45  1  0
  7 46  1  0
  8 47  1  0
  8 48  1  0
 10 49  1  0
 11 50  1  0
 11 51  1  0
 12 52  1  0
 12 53  1  0
 18 54  1  0
 20 55  1  0
 20 56  1  0
 24 57  1  0
 25 58  1  0
 26 59  1  0
 27 60  1  0
 29 61  1  0
 29 62  1  0
 30 63  1  0
 30 64  1  0
 31 65  1  0
 31 66  1  0
M  END
$$$$

     RDKit          3D

 54 58  0  0  0  0  0  0  0  0999 V2000
   -2.0287   -4.8859    0.5969 C   0  0  0  0  0  0  0  0  0  0  0  0
   -3.0559   -3.9260    0.9882 N   0  0  0  0  0  0  0  0  0  0  0  0
   -4.2219   -4.2871    1.5016 N   0  0  0  0  0  0  0  0  0  0  0  0
   -4.9099   -3.1674    1.7942 C   0  0  0  0  0  0  0  0  0  0  0  0
   -4.1590   -2.0608    1.4454 C   0  0  0  0  0  0  0  0  0  0  0  0
   -4.5902   -0.6595    1.5950 C   0  0  0  0  0  0  0  0  0  0  0  0
   -5.1921   -0.3235    2.6501 O   0  0  0  0  0  0  0  0  0  0  0  0
   -4.3691    0.3174    0.5632 N   0  0  0  0  0  0  0  0  0  0  0  0
   -4.3297    0.0056   -0.8561 C   0  0  0  0  0  0  0  0  0  0  0  0
   -4.0683    1.3305   -1.5561 C   0  0  0  0  0  0  0  0  0  0  0  0
   -4.4447    2.4156   -0.5514 C   0  0  0  0  0  0  0  0  0  0  0  0
   -4.4280    1.7471    0.8177 C   0  0  0  0  0  0  0  0  0  0  0  0
   -2.9677   -2.5767    0.9489 C   0  0  0  0  0  0  0  0  0  0  0  0
   -1.7646   -1.8279    0.5219 C   0  0  0  0  0  0  0  0  0  0  0  0
   -1.1031   -2.2513   -0.4632 O   0  0  0  0  0  0  0  0  0  0  0  0
   -1.3655   -0.6226    1.1983 N   0  0  0  0  0  0  0  0  0  0  0  0
   -0.1988    0.1420    0.8508 C   0  0  0  0  0  0  0  0  0  0  0  0
   -0.2350    1.5526    0.9455 C   0  0  0  0  0  0  0  0  0  0  0  0
    0.8960    2.3228    0.6290 C   0  0  0  0  0  0  0  0  0  0  0  0
    2.0453    1.6441    0.2390 C   0  0  0  0  0  0  0  0  0  0  0  0
    3.2279    2.1912   -0.0953 N   0  0  0  0  0  0  0  0  0  0  0  0
    3.9605    1.0777   -0.3632 C   0  0  0  0  0  0  0  0  0  0  0  0
    5.3311    1.1222   -0.7771 N   0  0  0  0  0  0  0  0  0  0  0  0
    6.1116   -0.0622   -1.0816 C   0  0  0  0  0  0  0  0  0  0  0  0
    7.4372    0.4542   -1.6260 C   0  0  0  0  0  0  0  0  0  0  0  0
    7.5107    1.9276   -1.2268 C   0  0  0  0  0  0  0  0  0  0  0  0
    6.0783    2.3556   -0.9343 C   0  0  0  0  0  0  0  0  0  0  0  0
    3.2728   -0.0783   -0.2016 N   0  0  0  0  0  0  0  0  0  0  0  0
    2.0716    0.3093    0.1755 N   0  0  0  0  0  0  0  0  0  0  0  0
    1.0098   -0.4805    0.4699 C   0  0  0  0  0  0  0  0  0  0  0  0
   -2.3698   -5.9213    0.8095 H   0  0  0  0  0  0  0  0  0  0  0  0
   -1.0965   -4.6936    1.1684 H   0  0  0  0  0  0  0  0  0  0  0  0
   -1.8258   -4.7987   -0.4906 H   0  0  0  0  0  0  0  0  0  0  0  0
   -5.9043   -3.1592    2.2208 H   0  0  0  0  0  0  0  0  0  0  0  0
   -3.5242   -0.7150   -1.0950 H   0  0  0  0  0  0  0  0  0  0  0  0
   -5.3097   -0.4139   -1.1705 H   0  0  0  0  0  0  0  0  0  0  0  0
   -4.6618    1.4190   -2.4917 H   0  0  0  0  0  0  0  0  0  0  0  0
   -2.9859    1.4138   -1.7998 H   0  0  0  0  0  0  0  0  0  0  0  0
   -3.7307    3.2667   -0.5933 H   0  0  0  0  0  0  0  0  0  0  0  0
   -5.4685    2.7885   -0.7742 H   0  0  0  0  0  0  0  0  0  0  0  0
   -3.5355    2.0595    1.3985 H   0  0  0  0  0  0  0  0  0  0  0  0
   -5.3498    2.0058    1.3828 H   0  0  0  0  0  0  0  0  0  0  0  0
   -1.9817   -0.2409    1.9492 H   0  0  0  0  0  0  0  0  0  0  0  0
   -1.1421    2.0525    1.2561 H   0  0  0  0  0  0  0  0  0  0  0  0
    0.8736    3.4031    0.6908 H   0  0  0  0  0  0  0  0  0  0  0  0
    6.2719   -0.6518   -0.1528 H   0  0  0  0  0  0  0  0  0  0  0  0
    5.5920   -0.6851   -1.8417 H   0  0  0  0  0  0  0  0  0  0  0  0
    8.2950   -0.1199   -1.2132 H   0  0  0  0  0  0  0  0  0  0  0  0
    7.4427    0.3708   -2.7351 H   0  0  0  0  0  0  0  0  0  0  0  0
    7.9604    2.5435   -2.0356 H   0  0  0  0  0  0  0  0  0  0  0  0
    8.1256    2.0306   -0.3057 H   0  0  0  0  0  0  0  0  0  0  0  0
    5.6618    2.9379   -1.7845 H   0  0  0  0  0  0  0  0  0  0  0  0
    6.0323    2.9592   -0.0019 H   0  0  0  0  0  0  0  0  0  0  0  0
    1.1103   -1.5571    0.4370 H   0  0  0  0  0  0  0  0  0  0  0  0
  1  2  1  0
  2  3  1  0
  3  4  2  0
  4  5  1  0
  5  6  1  0
  6  7  2  0
  6  8  1  0
  8  9  1  0
  9 10  1  0
 10 11  1  0
 11 12  1  0
  5 13  2  0
 13 14  1  0
 14 15  2  0
 14 16  1  0
 16 17  1  0
 17 18  1  0
 18 19  2  0
 19 20  1  0
 20 21  2  0
 21 22  1  0
 22 23  1  0
 23 24  1  0
 24 25  1  0
 25 26  1  0
 26 27  1  0
 22 28  2  0
 28 29  1  0
 29 30  1  0
 13  2  1  0
 30 17  2  0
 12  8  1  0
 29 20  1  0
 27 23  1  0
  1 31  1  0
  1 32  1  0
  1 33  1  0
  4 34  1  0
  9 35  1  0
  9 36  1  0
 10 37  1  0
 10 38  1  0
 11 39  1  0
 11 40  1  0
 12 41  1  0
 12 42  1  0
 16 43  1  0
 18 44  1  0
 19 45  1  0
 24 46  1  0
 24 47  1  0
 25 48  1  0
 25 49  1  0
 26 50  1  0
 26 51  1  0
 27 52  1  0
 27 53  1  0
 30 54  1  0
M  END
$$$$

     RDKit          3D

 50 54  0  0  0  0  0  0  0  0999 V2000
    3.8841    3.5750   -0.5896 C   0  0  0  0  0  0  0  0  0  0  0  0
    3.2864    2.3831    0.0197 N   0  0  0  0  0  0  0  0  0  0  0  0
    1.8579    2.3475    0.2215 C   0  0  0  0  0  0  0  0  0  0  0  0
    1.2334    3.4253    0.4215 O   0  0  0  0  0  0  0  0  0  0  0  0
    1.0996    1.0738    0.1923 C   0  0  0  0  0  0  0  0  0  0  0  0
    1.5065    0.0113   -0.6318 C   0  0  0  0  0  0  0  0  0  0  0  0
    0.7854   -1.1853   -0.6511 C   0  0  0  0  0  0  0  0  0  0  0  0
   -0.3596   -1.3404    0.1376 C   0  0  0  0  0  0  0  0  0  0  0  0
   -1.0473   -2.5635    0.0754 O   0  0  0  0  0  0  0  0  0  0  0  0
   -2.2874   -2.8474    0.7239 C   0  0  0  0  0  0  0  0  0  0  0  0
   -3.4080   -2.0805    0.0852 C   0  0  0  0  0  0  0  0  0  0  0  0
   -3.6850   -2.2309   -1.2811 C   0  0  0  0  0  0  0  0  0  0  0  0
   -4.7273   -1.5026   -1.8581 C   0  0  0  0  0  0  0  0  0  0  0  0
   -5.4885   -0.6318   -1.0691 C   0  0  0  0  0  0  0  0  0  0  0  0
   -6.5415    0.1166   -1.6161 C   0  0  0  0  0  0  0  0  0  0  0  0
   -7.2831    0.9778   -0.8005 C   0  0  0  0  0  0  0  0  0  0  0  0
   -6.9785    1.0956    0.5598 C   0  0  0  0  0  0  0  0  0  0  0  0
   -5.9305    0.3529    1.1130 C   0  0  0  0  0  0  0  0  0  0  0  0
   -5.1829   -0.5113    0.3051 C   0  0  0  0  0  0  0  0  0  0  0  0
   -4.1618   -1.2336    0.8389 N   0  0  0  0  0  0  0  0  0  0  0  0
   -0.7762   -0.2740    0.9565 C   0  0  0  0  0  0  0  0  0  0  0  0
   -0.0556    0.9236    0.9764 C   0  0  0  0  0  0  0  0  0  0  0  0
    4.1294    1.3118    0.4917 C   0  0  0  0  0  0  0  0  0  0  0  0
    3.9185    0.7370    1.7699 C   0  0  0  0  0  0  0  0  0  0  0  0
    4.7242   -0.3211    2.2209 C   0  0  0  0  0  0  0  0  0  0  0  0
    5.7255   -0.7732    1.3679 C   0  0  0  0  0  0  0  0  0  0  0  0
    6.5952   -1.7710    1.6043 N   0  0  0  0  0  0  0  0  0  0  0  0
    7.3173   -1.7752    0.4528 C   0  0  0  0  0  0  0  0  0  0  0  0
    6.9109   -0.8353   -0.4340 N   0  0  0  0  0  0  0  0  0  0  0  0
    5.9123   -0.2210    0.1666 N   0  0  0  0  0  0  0  0  0  0  0  0
    5.1648    0.8007   -0.3181 C   0  0  0  0  0  0  0  0  0  0  0  0
    3.5065    3.6926   -1.6270 H   0  0  0  0  0  0  0  0  0  0  0  0
    3.6181    4.4765    0.0017 H   0  0  0  0  0  0  0  0  0  0  0  0
    4.9922    3.5071   -0.6182 H   0  0  0  0  0  0  0  0  0  0  0  0
    2.3722    0.1099   -1.2739 H   0  0  0  0  0  0  0  0  0  0  0  0
    1.1130   -1.9950   -1.2908 H   0  0  0  0  0  0  0  0  0  0  0  0
   -2.2131   -2.6253    1.8103 H   0  0  0  0  0  0  0  0  0  0  0  0
   -2.4985   -3.9325    0.6220 H   0  0  0  0  0  0  0  0  0  0  0  0
   -3.0958   -2.9032   -1.8925 H   0  0  0  0  0  0  0  0  0  0  0  0
   -4.9367   -1.6188   -2.9147 H   0  0  0  0  0  0  0  0  0  0  0  0
   -6.7892    0.0360   -2.6677 H   0  0  0  0  0  0  0  0  0  0  0  0
   -8.0952    1.5550   -1.2232 H   0  0  0  0  0  0  0  0  0  0  0  0
   -7.5557    1.7636    1.1859 H   0  0  0  0  0  0  0  0  0  0  0  0
   -5.7014    0.4509    2.1670 H   0  0  0  0  0  0  0  0  0  0  0  0
   -1.6498   -0.3585    1.5860 H   0  0  0  0  0  0  0  0  0  0  0  0
   -0.3922    1.7285    1.6183 H   0  0  0  0  0  0  0  0  0  0  0  0
    3.1338    1.1131    2.4137 H   0  0  0  0  0  0  0  0  0  0  0  0
    4.5703   -0.7671    3.1949 H   0  0  0  0  0  0  0  0  0  0  0  0
    8.1328   -2.4600    0.2633 H   0  0  0  0  0  0  0  0  0  0  0  0
    5.3503    1.1935   -1.3099 H   0  0  0  0  0  0  0  0  0  0  0  0
  1  2  1  0
  2  3  1  0
  3  4  2  0
  3  5  1  0
  5  6  2  0
  6  7  1  0
  7  8  2  0
  8  9  1  0
  9 10  1  0
 10 11  1  0
 11 12  2  0
 12 13  1  0
 13 14  2  0
 14 15  1  0
 15 16  2  0
 16 17  1  0
 17 18  2  0
 18 19  1  0
 19 20  2  0
  8 21  1  0
 21 22  2  0
  2 23  1  0
 23 24  1  0
 24 25  2  0
 25 26  1  0
 26 27  2  0
 27 28  1  0
 28 29  2  0
 29 30  1  0
 30 31  1  0
 22  5  1  0
 31 23  2  0
 20 11  1  0
 30 26  1  0
 19 14  1  0
  1 32  1  0
  1 33  1  0
  1 34  1  0
  6 35  1  0
  7 36  1  0
 10 37  1  0
 10 38  1  0
 12 39  1  0
 13 40  1  0
 15 41  1  0
 16 42  1  0
 17 43  1  0
 18 44  1  0
 21 45  1  0
 22 46  1  0
 24 47  1  0
 25 48  1  0
 28 49  1  0
 31 50  1  0
M  END
$$$$

     RDKit          3D

 69 73  0  0  0  0  0  0  0  0999 V2000
   -9.4000    3.1813   -2.2783 C   0  0  0  0  0  0  0  0  0  0  0  0
   -8.1685    2.5035   -1.6873 C   0  0  0  0  0  0  0  0  0  0  0  0
   -7.5930    1.4630   -2.6536 C   0  0  0  0  0  0  0  0  0  0  0  0
   -6.3785    0.8682   -2.0995 N   0  0  0  0  0  0  0  0  0  0  0  0
   -6.4006   -0.0003   -0.9512 C   0  0  0  0  0  0  0  0  0  0  0  0
   -7.5665   -0.6223   -0.6202 N   0  0  0  0  0  0  0  0  0  0  0  0
   -7.6667   -1.4837    0.4229 C   0  0  0  0  0  0  0  0  0  0  0  0
   -6.5501   -1.7722    1.2012 C   0  0  0  0  0  0  0  0  0  0  0  0
   -5.3304   -1.1515    0.9123 C   0  0  0  0  0  0  0  0  0  0  0  0
   -4.2041   -1.4138    1.7040 C   0  0  0  0  0  0  0  0  0  0  0  0
   -2.9936   -0.7725    1.4430 C   0  0  0  0  0  0  0  0  0  0  0  0
   -2.8920    0.1533    0.3954 C   0  0  0  0  0  0  0  0  0  0  0  0
   -1.6178    0.8653    0.1489 C   0  0  0  0  0  0  0  0  0  0  0  0
   -1.6455    2.0420   -0.3048 O   0  0  0  0  0  0  0  0  0  0  0  0
   -0.3498    0.2380    0.4190 N   0  0  0  0  0  0  0  0  0  0  0  0
   -0.0708   -1.0829   -0.1572 C   0  0  0  0  0  0  0  0  0  0  0  0
    0.8741   -1.8714    0.7529 C   0  0  0  0  0  0  0  0  0  0  0  0
    2.1694   -1.0876    1.0772 C   0  0  0  0  0  0  0  0  0  0  0  0
    1.7841    0.2919    1.6761 C   0  0  0  0  0  0  0  0  0  0  0  0
    0.7852    1.0798    0.8149 C   0  0  0  0  0  0  0  0  0  0  0  0
    3.0355   -0.9197   -0.2264 C   0  0  0  0  0  0  0  0  0  0  0  0
    4.4570   -0.5783    0.1007 C   0  0  0  0  0  0  0  0  0  0  0  0
    5.4747   -0.1341   -0.7122 C   0  0  0  0  0  0  0  0  0  0  0  0
    6.6342   -0.2019   -0.0083 N   0  0  0  0  0  0  0  0  0  0  0  0
    8.0004    0.0628   -0.5040 C   0  0  0  0  0  0  0  0  0  0  0  0
    8.6656   -1.2759   -0.8621 C   0  0  0  0  0  0  0  0  0  0  0  0
    7.9853    0.9743   -1.7517 C   0  0  0  0  0  0  0  0  0  0  0  0
    8.8186    0.7645    0.5992 C   0  0  0  0  0  0  0  0  0  0  0  0
    6.3900   -0.7238    1.1907 N   0  0  0  0  0  0  0  0  0  0  0  0
    5.0660   -0.9424    1.2614 C   0  0  0  0  0  0  0  0  0  0  0  0
    4.3323   -1.6340    2.3082 C   0  0  0  0  0  0  0  0  0  0  0  0
    4.9139   -2.0730    3.3343 O   0  0  0  0  0  0  0  0  0  0  0  0
    2.9242   -1.8356    2.1128 N   0  0  0  0  0  0  0  0  0  0  0  0
   -4.0179    0.4247   -0.3979 C   0  0  0  0  0  0  0  0  0  0  0  0
   -5.2413   -0.2389   -0.1683 C   0  0  0  0  0  0  0  0  0  0  0  0
   -9.1360    3.7175   -3.2158 H   0  0  0  0  0  0  0  0  0  0  0  0
   -9.8035    3.9163   -1.5505 H   0  0  0  0  0  0  0  0  0  0  0  0
  -10.1869    2.4284   -2.4951 H   0  0  0  0  0  0  0  0  0  0  0  0
   -8.4521    2.0141   -0.7309 H   0  0  0  0  0  0  0  0  0  0  0  0
   -7.3987    3.2756   -1.4718 H   0  0  0  0  0  0  0  0  0  0  0  0
   -7.3451    1.9590   -3.6184 H   0  0  0  0  0  0  0  0  0  0  0  0
   -8.3423    0.6673   -2.8587 H   0  0  0  0  0  0  0  0  0  0  0  0
   -5.4964    1.0065   -2.6384 H   0  0  0  0  0  0  0  0  0  0  0  0
   -8.6160   -1.9520    0.6432 H   0  0  0  0  0  0  0  0  0  0  0  0
   -6.6430   -2.4651    2.0284 H   0  0  0  0  0  0  0  0  0  0  0  0
   -4.2624   -2.1074    2.5325 H   0  0  0  0  0  0  0  0  0  0  0  0
   -2.1413   -0.9794    2.0789 H   0  0  0  0  0  0  0  0  0  0  0  0
    0.3764   -0.9595   -1.1663 H   0  0  0  0  0  0  0  0  0  0  0  0
   -1.0053   -1.6690   -0.2840 H   0  0  0  0  0  0  0  0  0  0  0  0
    0.3315   -2.1003    1.6959 H   0  0  0  0  0  0  0  0  0  0  0  0
    1.1235   -2.8423    0.2731 H   0  0  0  0  0  0  0  0  0  0  0  0
    2.6945    0.9104    1.8318 H   0  0  0  0  0  0  0  0  0  0  0  0
    1.3225    0.1331    2.6763 H   0  0  0  0  0  0  0  0  0  0  0  0
    0.4239    1.9453    1.4131 H   0  0  0  0  0  0  0  0  0  0  0  0
    1.2809    1.4886   -0.0900 H   0  0  0  0  0  0  0  0  0  0  0  0
    2.6239   -0.1422   -0.9000 H   0  0  0  0  0  0  0  0  0  0  0  0
    3.0488   -1.8728   -0.7978 H   0  0  0  0  0  0  0  0  0  0  0  0
    5.3762    0.1558   -1.7484 H   0  0  0  0  0  0  0  0  0  0  0  0
    9.7002   -1.1156   -1.2357 H   0  0  0  0  0  0  0  0  0  0  0  0
    8.0807   -1.7966   -1.6508 H   0  0  0  0  0  0  0  0  0  0  0  0
    8.7094   -1.9382    0.0291 H   0  0  0  0  0  0  0  0  0  0  0  0
    7.5046    0.4654   -2.6130 H   0  0  0  0  0  0  0  0  0  0  0  0
    9.0203    1.2399   -2.0592 H   0  0  0  0  0  0  0  0  0  0  0  0
    7.4313    1.9133   -1.5409 H   0  0  0  0  0  0  0  0  0  0  0  0
    8.8821    0.1322    1.5109 H   0  0  0  0  0  0  0  0  0  0  0  0
    9.8533    0.9732    0.2508 H   0  0  0  0  0  0  0  0  0  0  0  0
    8.3384    1.7280    0.8764 H   0  0  0  0  0  0  0  0  0  0  0  0
    2.4062   -2.3886    2.8327 H   0  0  0  0  0  0  0  0  0  0  0  0
   -3.9233    1.1622   -1.1809 H   0  0  0  0  0  0  0  0  0  0  0  0
  1  2  1  0
  2  3  1  0
  3  4  1  0
  4  5  1  0
  5  6  2  0
  6  7  1  0
  7  8  2  0
  8  9  1  0
  9 10  2  0
 10 11  1  0
 11 12  2  0
 12 13  1  0
 13 14  2  0
 13 15  1  0
 15 16  1  0
 16 17  1  0
 17 18  1  0
 18 19  1  0
 19 20  1  0
 18 21  1  0
 21 22  1  0
 22 23  2  0
 23 24  1  0
 24 25  1  0
 25 26  1  0
 25 27  1  0
 25 28  1  0
 24 29  1  0
 29 30  2  0
 30 31  1  0
 31 32  2  0
 31 33  1  0
 12 34  1  0
 34 35  2  0
 35  5  1  0
 35  9  1  0
 20 15  1  0
 30 22  1  0
 33 18  1  0
  1 36  1  0
  1 37  1  0
  1 38  1  0
  2 39  1  0
  2 40  1  0
  3 41  1  0
  3 42  1  0
  4 43  1  0
  7 44  1  0
  8 45  1  0
 10 46  1  0
 11 47  1  0
 16 48  1  0
 16 49  1  0
 17 50  1  0
 17 51  1  0
 19 52  1  0
 19 53  1  0
 20 54  1  0
 20 55  1  0
 21 56  1  0
 21 57  1  0
 23 58  1  0
 26 59  1  0
 26 60  1  0
 26 61  1  0
 27 62  1  0
 27 63  1  0
 27 64  1  0
 28 65  1  0
 28 66  1  0
 28 67  1  0
 33 68  1  0
 34 69  1  0
M  END
$$$$

     RDKit          3D

 69 73  0  0  0  0  0  0  0  0999 V2000
   10.3636   -2.3924    0.3784 C   0  0  0  0  0  0  0  0  0  0  0  0
   10.1923   -1.3864   -0.7603 C   0  0  0  0  0  0  0  0  0  0  0  0
   11.4284   -1.1576   -1.3388 F   0  0  0  0  0  0  0  0  0  0  0  0
    9.3522   -1.9243   -1.7187 F   0  0  0  0  0  0  0  0  0  0  0  0
    9.6244   -0.0488   -0.2659 C   0  0  0  0  0  0  0  0  0  0  0  0
    8.2862   -0.2185    0.3053 N   0  0  0  0  0  0  0  0  0  0  0  0
    7.0726    0.2215   -0.3254 C   0  0  0  0  0  0  0  0  0  0  0  0
    6.9709    0.3672   -1.7208 C   0  0  0  0  0  0  0  0  0  0  0  0
    5.7621    0.7797   -2.2866 C   0  0  0  0  0  0  0  0  0  0  0  0
    4.6593    1.0409   -1.4651 C   0  0  0  0  0  0  0  0  0  0  0  0
    3.4360    1.4667   -1.9988 C   0  0  0  0  0  0  0  0  0  0  0  0
    2.3533    1.7268   -1.1519 C   0  0  0  0  0  0  0  0  0  0  0  0
    2.4759    1.5517    0.2384 C   0  0  0  0  0  0  0  0  0  0  0  0
    1.3630    1.8445    1.1681 C   0  0  0  0  0  0  0  0  0  0  0  0
    1.5845    2.5966    2.1552 O   0  0  0  0  0  0  0  0  0  0  0  0
    0.0891    1.1813    1.0658 N   0  0  0  0  0  0  0  0  0  0  0  0
   -0.4969    0.5865    2.2724 C   0  0  0  0  0  0  0  0  0  0  0  0
   -1.2684   -0.6792    1.8914 C   0  0  0  0  0  0  0  0  0  0  0  0
   -2.4185   -0.3976    0.8683 C   0  0  0  0  0  0  0  0  0  0  0  0
   -2.1691    0.9273    0.0800 C   0  0  0  0  0  0  0  0  0  0  0  0
   -0.6823    1.1974   -0.1850 C   0  0  0  0  0  0  0  0  0  0  0  0
   -3.7758   -0.2742    1.6513 C   0  0  0  0  0  0  0  0  0  0  0  0
   -4.9403   -0.3899    0.7174 C   0  0  0  0  0  0  0  0  0  0  0  0
   -6.2423    0.0360    0.8350 C   0  0  0  0  0  0  0  0  0  0  0  0
   -6.9320   -0.4428   -0.2313 N   0  0  0  0  0  0  0  0  0  0  0  0
   -8.3635   -0.2094   -0.5110 C   0  0  0  0  0  0  0  0  0  0  0  0
   -8.6130    1.3026   -0.6743 C   0  0  0  0  0  0  0  0  0  0  0  0
   -8.7868   -0.9264   -1.8118 C   0  0  0  0  0  0  0  0  0  0  0  0
   -9.2128   -0.7554    0.6535 C   0  0  0  0  0  0  0  0  0  0  0  0
   -6.1216   -1.1655   -1.0013 N   0  0  0  0  0  0  0  0  0  0  0  0
   -4.9105   -1.1366   -0.4187 C   0  0  0  0  0  0  0  0  0  0  0  0
   -3.6839   -1.7838   -0.8567 C   0  0  0  0  0  0  0  0  0  0  0  0
   -3.6702   -2.5559   -1.8504 O   0  0  0  0  0  0  0  0  0  0  0  0
   -2.4843   -1.5128   -0.1121 N   0  0  0  0  0  0  0  0  0  0  0  0
    3.7081    1.1343    0.7700 C   0  0  0  0  0  0  0  0  0  0  0  0
    4.7938    0.8753   -0.0721 C   0  0  0  0  0  0  0  0  0  0  0  0
    5.9816    0.4690    0.4514 N   0  0  0  0  0  0  0  0  0  0  0  0
    9.3769   -2.6805    0.7969 H   0  0  0  0  0  0  0  0  0  0  0  0
   10.9908   -1.9609    1.1871 H   0  0  0  0  0  0  0  0  0  0  0  0
   10.8578   -3.3102   -0.0042 H   0  0  0  0  0  0  0  0  0  0  0  0
    9.6089    0.6824   -1.1010 H   0  0  0  0  0  0  0  0  0  0  0  0
   10.2964    0.3789    0.5094 H   0  0  0  0  0  0  0  0  0  0  0  0
    8.2275   -0.5340    1.2997 H   0  0  0  0  0  0  0  0  0  0  0  0
    7.8044    0.1484   -2.3736 H   0  0  0  0  0  0  0  0  0  0  0  0
    5.6895    0.8912   -3.3620 H   0  0  0  0  0  0  0  0  0  0  0  0
    3.3220    1.6124   -3.0662 H   0  0  0  0  0  0  0  0  0  0  0  0
    1.4413    2.1004   -1.5906 H   0  0  0  0  0  0  0  0  0  0  0  0
    0.3033    0.3112    2.9949 H   0  0  0  0  0  0  0  0  0  0  0  0
   -1.1749    1.3180    2.7627 H   0  0  0  0  0  0  0  0  0  0  0  0
   -1.6475   -1.1661    2.8154 H   0  0  0  0  0  0  0  0  0  0  0  0
   -0.5301   -1.3882    1.4581 H   0  0  0  0  0  0  0  0  0  0  0  0
   -2.7145    0.9126   -0.8890 H   0  0  0  0  0  0  0  0  0  0  0  0
   -2.5630    1.7980    0.6503 H   0  0  0  0  0  0  0  0  0  0  0  0
   -0.2791    0.4322   -0.8824 H   0  0  0  0  0  0  0  0  0  0  0  0
   -0.6073    2.2013   -0.6558 H   0  0  0  0  0  0  0  0  0  0  0  0
   -3.8310    0.6816    2.2162 H   0  0  0  0  0  0  0  0  0  0  0  0
   -3.8728   -1.1029    2.3858 H   0  0  0  0  0  0  0  0  0  0  0  0
   -6.6568    0.6321    1.6376 H   0  0  0  0  0  0  0  0  0  0  0  0
   -8.3735    1.8471    0.2639 H   0  0  0  0  0  0  0  0  0  0  0  0
   -7.9739    1.7106   -1.4872 H   0  0  0  0  0  0  0  0  0  0  0  0
   -9.6774    1.5033   -0.9253 H   0  0  0  0  0  0  0  0  0  0  0  0
   -8.1949   -0.5511   -2.6755 H   0  0  0  0  0  0  0  0  0  0  0  0
   -8.6239   -2.0232   -1.7223 H   0  0  0  0  0  0  0  0  0  0  0  0
   -9.8634   -0.7504   -2.0272 H   0  0  0  0  0  0  0  0  0  0  0  0
  -10.2972   -0.6142    0.4502 H   0  0  0  0  0  0  0  0  0  0  0  0
   -9.0162   -1.8403    0.7947 H   0  0  0  0  0  0  0  0  0  0  0  0
   -8.9693   -0.2319    1.6018 H   0  0  0  0  0  0  0  0  0  0  0  0
   -1.6000   -1.9599   -0.4460 H   0  0  0  0  0  0  0  0  0  0  0  0
    3.8228    1.0044    1.8401 H   0  0  0  0  0  0  0  0  0  0  0  0
  1  2  1  0
  2  3  1  0
  2  4  1  0
  2  5  1  0
  5  6  1  0
  6  7  1  0
  7  8  2  0
  8  9  1  0
  9 10  2  0
 10 11  1  0
 11 12  2  0
 12 13  1  0
 13 14  1  0
 14 15  2  0
 14 16  1  0
 16 17  1  0
 17 18  1  0
 18 19  1  0
 19 20  1  0
 20 21  1  0
 19 22  1  0
 22 23  1  0
 23 24  2  0
 24 25  1  0
 25 26  1  0
 26 27  1  0
 26 28  1  0
 26 29  1  0
 25 30  1  0
 30 31  2  0
 31 32  1  0
 32 33  2  0
 32 34  1  0
 13 35  2  0
 35 36  1  0
 36 37  2  0
 37  7  1  0
 36 10  1  0
 21 16  1  0
 31 23  1  0
 34 19  1  0
  1 38  1  0
  1 39  1  0
  1 40  1  0
  5 41  1  0
  5 42  1  0
  6 43  1  0
  8 44  1  0
  9 45  1  0
 11 46  1  0
 12 47  1  0
 17 48  1  0
 17 49  1  0
 18 50  1  0
 18 51  1  0
 20 52  1  0
 20 53  1  0
 21 54  1  0
 21 55  1  0
 22 56  1  0
 22 57  1  0
 24 58  1  0
 27 59  1  0
 27 60  1  0
 27 61  1  0
 28 62  1  0
 28 63  1  0
 28 64  1  0
 29 65  1  0
 29 66  1  0
 29 67  1  0
 34 68  1  0
 35 69  1  0
M  END
$$$$

     RDKit          3D

 62 65  0  0  0  0  0  0  0  0999 V2000
   10.7467    0.7439   -1.0341 C   0  0  0  0  0  0  0  0  0  0  0  0
   10.0246    0.1354   -0.0949 C   0  0  0  0  0  0  0  0  0  0  0  0
    8.6117    0.4711    0.1619 C   0  0  0  0  0  0  0  0  0  0  0  0
    8.0451    1.3820   -0.5020 O   0  0  0  0  0  0  0  0  0  0  0  0
    7.9005   -0.2161    1.2031 N   0  0  0  0  0  0  0  0  0  0  0  0
    6.4805   -0.1165    1.4009 C   0  0  0  0  0  0  0  0  0  0  0  0
    5.9644   -0.1506    2.7026 C   0  0  0  0  0  0  0  0  0  0  0  0
    4.5874   -0.0840    2.9174 C   0  0  0  0  0  0  0  0  0  0  0  0
    3.7108    0.0074    1.8344 C   0  0  0  0  0  0  0  0  0  0  0  0
    4.2020    0.0292    0.5163 C   0  0  0  0  0  0  0  0  0  0  0  0
    3.2497    0.0958   -0.6234 C   0  0  0  0  0  0  0  0  0  0  0  0
    3.6249    0.6344   -1.8899 C   0  0  0  0  0  0  0  0  0  0  0  0
    2.7169    0.6901   -2.9104 N   0  0  0  0  0  0  0  0  0  0  0  0
    1.4685    0.2167   -2.6897 C   0  0  0  0  0  0  0  0  0  0  0  0
    0.4422    0.2271   -3.5525 N   0  0  0  0  0  0  0  0  0  0  0  0
   -0.6076   -0.2927   -2.8698 C   0  0  0  0  0  0  0  0  0  0  0  0
   -0.2347   -0.6367   -1.5636 C   0  0  0  0  0  0  0  0  0  0  0  0
   -1.1018   -1.2078   -0.5047 C   0  0  0  0  0  0  0  0  0  0  0  0
   -0.5547   -1.9676    0.5453 C   0  0  0  0  0  0  0  0  0  0  0  0
   -1.3805   -2.4993    1.5390 C   0  0  0  0  0  0  0  0  0  0  0  0
   -2.7591   -2.2836    1.4973 C   0  0  0  0  0  0  0  0  0  0  0  0
   -3.3214   -1.5364    0.4541 C   0  0  0  0  0  0  0  0  0  0  0  0
   -5.0563   -1.2366    0.3889 S   0  0  0  0  0  6  0  0  0  0  0  0
   -5.5554   -1.7549   -0.9290 O   0  0  0  0  0  0  0  0  0  0  0  0
   -5.7438   -1.9905    1.4954 O   0  0  0  0  0  0  0  0  0  0  0  0
   -5.3389    0.4902    0.5738 N   0  0  0  0  0  0  0  0  0  0  0  0
   -4.9690    0.8739    1.9506 C   0  0  0  0  0  0  0  0  0  0  0  0
   -6.6901    0.9774    0.1269 C   0  0  0  0  0  0  0  0  0  0  0  0
   -6.9253    2.4482    0.5667 C   0  0  0  0  0  0  0  0  0  0  0  0
   -7.8539    0.1210    0.6836 C   0  0  0  0  0  0  0  0  0  0  0  0
   -6.7495    0.9776   -1.4196 C   0  0  0  0  0  0  0  0  0  0  0  0
   -2.4930   -1.0011   -0.5411 C   0  0  0  0  0  0  0  0  0  0  0  0
    1.1018   -0.2954   -1.4875 C   0  0  0  0  0  0  0  0  0  0  0  0
    1.9666   -0.3514   -0.4476 N   0  0  0  0  0  0  0  0  0  0  0  0
    5.5942   -0.0505    0.3103 C   0  0  0  0  0  0  0  0  0  0  0  0
   10.3224    1.5190   -1.6610 H   0  0  0  0  0  0  0  0  0  0  0  0
   11.7808    0.4634   -1.1865 H   0  0  0  0  0  0  0  0  0  0  0  0
   10.4934   -0.6373    0.5005 H   0  0  0  0  0  0  0  0  0  0  0  0
    8.4591   -0.7441    1.9120 H   0  0  0  0  0  0  0  0  0  0  0  0
    6.6326   -0.2215    3.5517 H   0  0  0  0  0  0  0  0  0  0  0  0
    4.1975   -0.1038    3.9270 H   0  0  0  0  0  0  0  0  0  0  0  0
    2.6468    0.0633    2.0298 H   0  0  0  0  0  0  0  0  0  0  0  0
    4.6143    1.0356   -2.0571 H   0  0  0  0  0  0  0  0  0  0  0  0
    0.4450    0.5744   -4.5371 H   0  0  0  0  0  0  0  0  0  0  0  0
   -1.5919   -0.4201   -3.3006 H   0  0  0  0  0  0  0  0  0  0  0  0
    0.5060   -2.1724    0.5921 H   0  0  0  0  0  0  0  0  0  0  0  0
   -0.9498   -3.0840    2.3420 H   0  0  0  0  0  0  0  0  0  0  0  0
   -3.3821   -2.6978    2.2788 H   0  0  0  0  0  0  0  0  0  0  0  0
   -4.7855    1.9657    2.0129 H   0  0  0  0  0  0  0  0  0  0  0  0
   -5.7516    0.5781    2.6795 H   0  0  0  0  0  0  0  0  0  0  0  0
   -4.0112    0.4010    2.2532 H   0  0  0  0  0  0  0  0  0  0  0  0
   -6.0777    3.0901    0.2434 H   0  0  0  0  0  0  0  0  0  0  0  0
   -7.8580    2.8583    0.1218 H   0  0  0  0  0  0  0  0  0  0  0  0
   -7.0428    2.5298    1.6684 H   0  0  0  0  0  0  0  0  0  0  0  0
   -7.8099    0.0547    1.7902 H   0  0  0  0  0  0  0  0  0  0  0  0
   -8.8320    0.5719    0.4082 H   0  0  0  0  0  0  0  0  0  0  0  0
   -7.8442   -0.9056    0.2645 H   0  0  0  0  0  0  0  0  0  0  0  0
   -7.6172    1.5671   -1.7903 H   0  0  0  0  0  0  0  0  0  0  0  0
   -5.8217    1.4226   -1.8402 H   0  0  0  0  0  0  0  0  0  0  0  0
   -6.8802   -0.0372   -1.8395 H   0  0  0  0  0  0  0  0  0  0  0  0
   -2.9374   -0.4083   -1.3307 H   0  0  0  0  0  0  0  0  0  0  0  0
    5.9919   -0.1130   -0.6926 H   0  0  0  0  0  0  0  0  0  0  0  0
  1  2  2  3
  2  3  1  0
  3  4  2  0
  3  5  1  0
  5  6  1  0
  6  7  2  0
  7  8  1  0
  8  9  2  0
  9 10  1  0
 10 11  1  0
 11 12  2  0
 12 13  1  0
 13 14  2  0
 14 15  1  0
 15 16  1  0
 16 17  2  0
 17 18  1  0
 18 19  2  0
 19 20  1  0
 20 21  2  0
 21 22  1  0
 22 23  1  0
 23 24  2  0
 23 25  2  0
 23 26  1  0
 26 27  1  0
 26 28  1  0
 28 29  1  0
 28 30  1  0
 28 31  1  0
 22 32  2  0
 17 33  1  0
 33 34  2  0
 10 35  2  0
 35  6  1  0
 34 11  1  0
 33 14  1  0
 32 18  1  0
  1 36  1  0
  1 37  1  0
  2 38  1  0
  5 39  1  0
  7 40  1  0
  8 41  1  0
  9 42  1  0
 12 43  1  0
 15 44  1  0
 16 45  1  0
 19 46  1  0
 20 47  1  0
 21 48  1  0
 27 49  1  0
 27 50  1  0
 27 51  1  0
 29 52  1  0
 29 53  1  0
 29 54  1  0
 30 55  1  0
 30 56  1  0
 30 57  1  0
 31 58  1  0
 31 59  1  0
 31 60  1  0
 32 61  1  0
 35 62  1  0
M  END
$$$$

     RDKit          3D

 58 61  0  0  0  0  0  0  0  0999 V2000
    4.0170   -3.4249   -3.0206 C   0  0  0  0  0  0  0  0  0  0  0  0
    4.5198   -1.9752   -3.1432 C   0  0  0  0  0  0  0  0  0  0  0  0
    4.6788   -1.6320   -4.6368 C   0  0  0  0  0  0  0  0  0  0  0  0
    5.7748   -1.8846   -2.5084 O   0  0  0  0  0  0  0  0  0  0  0  0
    3.5100   -0.9945   -2.4880 C   0  0  0  0  0  0  0  0  0  0  0  0
    3.4462   -1.1535   -1.0335 N   0  0  0  0  0  0  0  0  0  0  0  0
    2.5867   -0.3278   -0.2324 C   0  0  0  0  0  0  0  0  0  0  0  0
    1.8306    0.5149   -0.7904 O   0  0  0  0  0  0  0  0  0  0  0  0
    2.5860   -0.4485    1.2463 C   0  0  0  0  0  0  0  0  0  0  0  0
    3.8024   -0.6693    1.9181 C   0  0  0  0  0  0  0  0  0  0  0  0
    3.8407   -0.7549    3.3110 C   0  0  0  0  0  0  0  0  0  0  0  0
    2.6677   -0.6230    4.0536 C   0  0  0  0  0  0  0  0  0  0  0  0
    2.7071   -0.7204    5.4053 F   0  0  0  0  0  0  0  0  0  0  0  0
    1.4519   -0.3993    3.4056 C   0  0  0  0  0  0  0  0  0  0  0  0
    1.3965   -0.2981    2.0036 C   0  0  0  0  0  0  0  0  0  0  0  0
    0.1278   -0.1242    1.3493 N   0  0  0  0  0  0  0  0  0  0  0  0
   -0.8265    0.8789    1.7375 C   0  0  0  0  0  0  0  0  0  0  0  0
   -0.5977    1.6129    2.7360 O   0  0  0  0  0  0  0  0  0  0  0  0
   -2.0146    1.1236    0.8922 C   0  0  0  0  0  0  0  0  0  0  0  0
   -1.8676    0.9962   -0.4545 N   0  0  0  0  0  0  0  0  0  0  0  0
   -2.8855    1.2294   -1.3241 C   0  0  0  0  0  0  0  0  0  0  0  0
   -2.6897    1.0832   -2.8087 C   0  0  0  0  0  0  0  0  0  0  0  0
   -1.2558    0.9930   -3.3236 C   0  0  0  0  0  0  0  0  0  0  0  0
   -2.0291    2.2970   -3.4489 C   0  0  0  0  0  0  0  0  0  0  0  0
   -4.1291    1.6083   -0.8194 C   0  0  0  0  0  0  0  0  0  0  0  0
   -4.3001    1.7121    0.5220 N   0  0  0  0  0  0  0  0  0  0  0  0
   -3.2894    1.4727    1.4033 C   0  0  0  0  0  0  0  0  0  0  0  0
   -3.5556    1.5557    2.8160 N   0  0  0  0  0  0  0  0  0  0  0  0
   -4.8533    1.3149    3.3900 C   0  0  0  0  0  0  0  0  0  0  0  0
   -5.2239    1.9506    4.5813 C   0  0  0  0  0  0  0  0  0  0  0  0
   -6.4412    1.7109    5.1334 N   0  0  0  0  0  0  0  0  0  0  0  0
   -7.3113    0.8451    4.5536 C   0  0  0  0  0  0  0  0  0  0  0  0
   -6.9662    0.1959    3.4113 N   0  0  0  0  0  0  0  0  0  0  0  0
   -5.7609    0.4070    2.8232 C   0  0  0  0  0  0  0  0  0  0  0  0
    4.7315   -4.1218   -3.5092 H   0  0  0  0  0  0  0  0  0  0  0  0
    3.0232   -3.5396   -3.5055 H   0  0  0  0  0  0  0  0  0  0  0  0
    3.9263   -3.7285   -1.9574 H   0  0  0  0  0  0  0  0  0  0  0  0
    5.0306   -0.5847   -4.7626 H   0  0  0  0  0  0  0  0  0  0  0  0
    5.4255   -2.3056   -5.1111 H   0  0  0  0  0  0  0  0  0  0  0  0
    3.7082   -1.7422   -5.1695 H   0  0  0  0  0  0  0  0  0  0  0  0
    6.0819   -0.9437   -2.5740 H   0  0  0  0  0  0  0  0  0  0  0  0
    2.4961   -1.1532   -2.9193 H   0  0  0  0  0  0  0  0  0  0  0  0
    3.8124    0.0521   -2.7143 H   0  0  0  0  0  0  0  0  0  0  0  0
    4.0304   -1.8799   -0.5611 H   0  0  0  0  0  0  0  0  0  0  0  0
    4.7316   -0.7499    1.3676 H   0  0  0  0  0  0  0  0  0  0  0  0
    4.7843   -0.9217    3.8152 H   0  0  0  0  0  0  0  0  0  0  0  0
    0.5465   -0.3281    3.9972 H   0  0  0  0  0  0  0  0  0  0  0  0
   -0.0652   -0.6903    0.4923 H   0  0  0  0  0  0  0  0  0  0  0  0
   -3.4725    0.5999   -3.4303 H   0  0  0  0  0  0  0  0  0  0  0  0
   -1.1440    0.4486   -4.2855 H   0  0  0  0  0  0  0  0  0  0  0  0
   -0.4398    1.0344   -2.5734 H   0  0  0  0  0  0  0  0  0  0  0  0
   -2.3722    2.5190   -4.4817 H   0  0  0  0  0  0  0  0  0  0  0  0
   -1.6762    3.0928   -2.7550 H   0  0  0  0  0  0  0  0  0  0  0  0
   -4.9610    1.8056   -1.4833 H   0  0  0  0  0  0  0  0  0  0  0  0
   -2.8115    1.9042    3.4591 H   0  0  0  0  0  0  0  0  0  0  0  0
   -4.5482    2.6428    5.0652 H   0  0  0  0  0  0  0  0  0  0  0  0
   -8.2765    0.6661    5.0068 H   0  0  0  0  0  0  0  0  0  0  0  0
   -5.5079   -0.1482    1.9296 H   0  0  0  0  0  0  0  0  0  0  0  0
  1  2  1  0
  2  3  1  0
  2  4  1  0
  2  5  1  0
  5  6  1  0
  6  7  1  0
  7  8  2  0
  7  9  1  0
  9 10  2  0
 10 11  1  0
 11 12  2  0
 12 13  1  0
 12 14  1  0
 14 15  2  0
 15 16  1  0
 16 17  1  0
 17 18  2  0
 17 19  1  0
 19 20  2  0
 20 21  1  0
 21 22  1  0
 22 23  1  0
 23 24  1  0
 21 25  2  0
 25 26  1  0
 26 27  2  0
 27 28  1  0
 28 29  1  0
 29 30  2  0
 30 31  1  0
 31 32  2  0
 32 33  1  0
 33 34  2  0
 15  9  1  0
 27 19  1  0
 34 29  1  0
 24 22  1  0
  1 35  1  0
  1 36  1  0
  1 37  1  0
  3 38  1  0
  3 39  1  0
  3 40  1  0
  4 41  1  0
  5 42  1  0
  5 43  1  0
  6 44  1  0
 10 45  1  0
 11 46  1  0
 14 47  1  0
 16 48  1  0
 22 49  1  0
 23 50  1  0
 23 51  1  0
 24 52  1  0
 24 53  1  0
 25 54  1  0
 28 55  1  0
 30 56  1  0
 32 57  1  0
 34 58  1  0
M  END
$$$$

     RDKit          3D

 55 59  0  0  0  0  0  0  0  0999 V2000
    5.7075    1.4882    1.6208 C   0  0  0  0  0  0  0  0  0  0  0  0
    5.6326    2.4037    0.4754 N   0  0  0  0  0  0  0  0  0  0  0  0
    6.5209    1.9443   -0.5993 C   0  0  0  0  0  0  0  0  0  0  0  0
    3.9892    2.4878   -0.1102 S   0  0  0  0  0  6  0  0  0  0  0  0
    3.9168    3.4556   -1.2588 O   0  0  0  0  0  0  0  0  0  0  0  0
    3.0939    2.9997    0.9841 O   0  0  0  0  0  0  0  0  0  0  0  0
    3.4084    0.9088   -0.6432 C   0  0  0  0  0  0  0  0  0  0  0  0
    3.5708    0.5102   -1.9770 C   0  0  0  0  0  0  0  0  0  0  0  0
    3.1221   -0.7451   -2.3944 C   0  0  0  0  0  0  0  0  0  0  0  0
    2.5030   -1.6067   -1.4856 C   0  0  0  0  0  0  0  0  0  0  0  0
    2.3187   -1.2115   -0.1513 C   0  0  0  0  0  0  0  0  0  0  0  0
    1.6709   -2.1129    0.8219 C   0  0  0  0  0  0  0  0  0  0  0  0
    2.3692   -2.4718    1.9337 N   0  0  0  0  0  0  0  0  0  0  0  0
    1.8524   -3.3167    2.8611 C   0  0  0  0  0  0  0  0  0  0  0  0
    0.5761   -3.8398    2.6727 C   0  0  0  0  0  0  0  0  0  0  0  0
   -0.1391   -3.4739    1.5790 N   0  0  0  0  0  0  0  0  0  0  0  0
    0.3518   -2.6028    0.6533 C   0  0  0  0  0  0  0  0  0  0  0  0
   -0.5036   -2.2276   -0.5433 C   0  0  0  0  0  0  0  0  0  0  0  0
   -1.9926   -2.2848   -0.3331 C   0  0  0  0  0  0  0  0  0  0  0  0
   -2.2319   -0.8404   -0.4937 N   0  0  0  0  0  0  0  0  0  0  0  0
   -3.3485    0.0464   -0.4709 C   0  0  0  0  0  0  0  0  0  0  0  0
   -3.1641    1.4205   -0.6667 C   0  0  0  0  0  0  0  0  0  0  0  0
   -4.2685    2.2747   -0.6386 C   0  0  0  0  0  0  0  0  0  0  0  0
   -5.5480    1.7511   -0.4152 C   0  0  0  0  0  0  0  0  0  0  0  0
   -6.6796    2.5795   -0.3797 C   0  0  0  0  0  0  0  0  0  0  0  0
   -7.9438    2.0251   -0.1535 C   0  0  0  0  0  0  0  0  0  0  0  0
   -8.0842    0.6463    0.0370 C   0  0  0  0  0  0  0  0  0  0  0  0
   -6.9613   -0.1867    0.0029 C   0  0  0  0  0  0  0  0  0  0  0  0
   -5.6923    0.3585   -0.2224 C   0  0  0  0  0  0  0  0  0  0  0  0
   -4.5975   -0.4480   -0.2553 N   0  0  0  0  0  0  0  0  0  0  0  0
   -0.7729   -0.7554   -0.6778 C   0  0  0  0  0  0  0  0  0  0  0  0
    2.7886    0.0422    0.2681 C   0  0  0  0  0  0  0  0  0  0  0  0
    5.4431    0.4480    1.3298 H   0  0  0  0  0  0  0  0  0  0  0  0
    6.7363    1.4914    2.0405 H   0  0  0  0  0  0  0  0  0  0  0  0
    5.0219    1.8259    2.4266 H   0  0  0  0  0  0  0  0  0  0  0  0
    6.2608    0.9155   -0.9318 H   0  0  0  0  0  0  0  0  0  0  0  0
    6.4586    2.6337   -1.4678 H   0  0  0  0  0  0  0  0  0  0  0  0
    7.5750    1.9512   -0.2480 H   0  0  0  0  0  0  0  0  0  0  0  0
    4.0544    1.1654   -2.6903 H   0  0  0  0  0  0  0  0  0  0  0  0
    3.2607   -1.0537   -3.4225 H   0  0  0  0  0  0  0  0  0  0  0  0
    2.1818   -2.5852   -1.8188 H   0  0  0  0  0  0  0  0  0  0  0  0
    2.4341   -3.5879    3.7319 H   0  0  0  0  0  0  0  0  0  0  0  0
    0.1527   -4.5269    3.3929 H   0  0  0  0  0  0  0  0  0  0  0  0
   -0.1920   -2.7113   -1.4940 H   0  0  0  0  0  0  0  0  0  0  0  0
   -2.3167   -2.6159    0.6776 H   0  0  0  0  0  0  0  0  0  0  0  0
   -2.5086   -2.8578   -1.1352 H   0  0  0  0  0  0  0  0  0  0  0  0
   -2.1744    1.8245   -0.8383 H   0  0  0  0  0  0  0  0  0  0  0  0
   -4.1236    3.3377   -0.7899 H   0  0  0  0  0  0  0  0  0  0  0  0
   -6.5867    3.6492   -0.5251 H   0  0  0  0  0  0  0  0  0  0  0  0
   -8.8164    2.6650   -0.1252 H   0  0  0  0  0  0  0  0  0  0  0  0
   -9.0649    0.2231    0.2117 H   0  0  0  0  0  0  0  0  0  0  0  0
   -7.0796   -1.2529    0.1518 H   0  0  0  0  0  0  0  0  0  0  0  0
   -0.5243   -0.3726   -1.6925 H   0  0  0  0  0  0  0  0  0  0  0  0
   -0.3203   -0.1305    0.1246 H   0  0  0  0  0  0  0  0  0  0  0  0
    2.6633    0.3459    1.3005 H   0  0  0  0  0  0  0  0  0  0  0  0
  1  2  1  0
  2  3  1  0
  2  4  1  0
  4  5  2  0
  4  6  2  0
  4  7  1  0
  7  8  2  0
  8  9  1  0
  9 10  2  0
 10 11  1  0
 11 12  1  0
 12 13  2  0
 13 14  1  0
 14 15  2  0
 15 16  1  0
 16 17  2  0
 17 18  1  0
 18 19  1  0
 19 20  1  0
 20 21  1  0
 21 22  2  0
 22 23  1  0
 23 24  2  0
 24 25  1  0
 25 26  2  0
 26 27  1  0
 27 28  2  0
 28 29  1  0
 29 30  2  0
 20 31  1  0
 11 32  2  0
 32  7  1  0
 17 12  1  0
 31 18  1  0
 30 21  1  0
 29 24  1  0
  1 33  1  0
  1 34  1  0
  1 35  1  0
  3 36  1  0
  3 37  1  0
  3 38  1  0
  8 39  1  0
  9 40  1  0
 10 41  1  0
 14 42  1  0
 15 43  1  0
 18 44  1  0
 19 45  1  0
 19 46  1  0
 22 47  1  0
 23 48  1  0
 25 49  1  0
 26 50  1  0
 27 51  1  0
 28 52  1  0
 31 53  1  0
 31 54  1  0
 32 55  1  0
M  END
$$$$

     RDKit          3D

 63 66  0  0  0  0  0  0  0  0999 V2000
   10.3196    0.8011   -1.1541 C   0  0  0  0  0  0  0  0  0  0  0  0
    9.9141    0.6777    0.1090 C   0  0  0  0  0  0  0  0  0  0  0  0
    8.6854   -0.0436    0.4975 C   0  0  0  0  0  0  0  0  0  0  0  0
    8.2386    0.1177    1.6649 O   0  0  0  0  0  0  0  0  0  0  0  0
    8.0300   -0.9526   -0.4046 N   0  0  0  0  0  0  0  0  0  0  0  0
    6.6895   -1.4449   -0.2184 C   0  0  0  0  0  0  0  0  0  0  0  0
    6.3508   -2.7079   -0.7263 C   0  0  0  0  0  0  0  0  0  0  0  0
    5.0570   -3.2084   -0.5747 C   0  0  0  0  0  0  0  0  0  0  0  0
    4.0840   -2.4487    0.0763 C   0  0  0  0  0  0  0  0  0  0  0  0
    4.3926   -1.1709    0.5763 C   0  0  0  0  0  0  0  0  0  0  0  0
    3.3558   -0.3666    1.2701 C   0  0  0  0  0  0  0  0  0  0  0  0
    3.6810    0.4023    2.4203 C   0  0  0  0  0  0  0  0  0  0  0  0
    2.7248    1.1321    3.0675 N   0  0  0  0  0  0  0  0  0  0  0  0
    1.4503    1.1063    2.6101 C   0  0  0  0  0  0  0  0  0  0  0  0
    0.4109    1.7718    3.1400 N   0  0  0  0  0  0  0  0  0  0  0  0
   -0.6552    1.4565    2.3696 C   0  0  0  0  0  0  0  0  0  0  0  0
   -0.2851    0.5731    1.3530 C   0  0  0  0  0  0  0  0  0  0  0  0
   -1.1857   -0.0039    0.3286 C   0  0  0  0  0  0  0  0  0  0  0  0
   -1.0135   -1.3246   -0.1220 C   0  0  0  0  0  0  0  0  0  0  0  0
   -1.8614   -1.8525   -1.1002 C   0  0  0  0  0  0  0  0  0  0  0  0
   -2.8993   -1.0784   -1.6240 C   0  0  0  0  0  0  0  0  0  0  0  0
   -3.1072    0.2270   -1.1559 C   0  0  0  0  0  0  0  0  0  0  0  0
   -4.4347    1.2122   -1.7634 S   0  0  0  0  0  6  0  0  0  0  0  0
   -5.0173    0.5958   -3.0047 O   0  0  0  0  0  0  0  0  0  0  0  0
   -3.8574    2.5481   -2.1463 O   0  0  0  0  0  0  0  0  0  0  0  0
   -5.6380    1.3912   -0.4866 N   0  0  0  0  0  0  0  0  0  0  0  0
   -6.0749    2.7994   -0.4234 C   0  0  0  0  0  0  0  0  0  0  0  0
   -6.7525    0.3815   -0.4663 C   0  0  0  0  0  0  0  0  0  0  0  0
   -7.8313    0.6655   -1.5409 C   0  0  0  0  0  0  0  0  0  0  0  0
   -6.2075   -1.0571   -0.6564 C   0  0  0  0  0  0  0  0  0  0  0  0
   -7.4345    0.3969    0.9249 C   0  0  0  0  0  0  0  0  0  0  0  0
   -2.2524    0.7587   -0.1809 C   0  0  0  0  0  0  0  0  0  0  0  0
    1.0781    0.3672    1.5236 C   0  0  0  0  0  0  0  0  0  0  0  0
    2.0216   -0.3650    0.8051 C   0  0  0  0  0  0  0  0  0  0  0  0
    5.6988   -0.6704    0.4130 C   0  0  0  0  0  0  0  0  0  0  0  0
    9.7710    0.3626   -1.9737 H   0  0  0  0  0  0  0  0  0  0  0  0
   11.2117    1.3718   -1.3764 H   0  0  0  0  0  0  0  0  0  0  0  0
   10.4764    1.1823    0.8863 H   0  0  0  0  0  0  0  0  0  0  0  0
    8.6087   -1.4039   -1.1474 H   0  0  0  0  0  0  0  0  0  0  0  0
    7.0933   -3.3071   -1.2402 H   0  0  0  0  0  0  0  0  0  0  0  0
    4.8058   -4.1880   -0.9702 H   0  0  0  0  0  0  0  0  0  0  0  0
    3.0924   -2.8658    0.1954 H   0  0  0  0  0  0  0  0  0  0  0  0
    4.6922    0.4081    2.8074 H   0  0  0  0  0  0  0  0  0  0  0  0
    0.4221    2.4049    3.9693 H   0  0  0  0  0  0  0  0  0  0  0  0
   -1.6540    1.8334    2.5471 H   0  0  0  0  0  0  0  0  0  0  0  0
   -0.2427   -1.9579    0.2992 H   0  0  0  0  0  0  0  0  0  0  0  0
   -1.7223   -2.8672   -1.4476 H   0  0  0  0  0  0  0  0  0  0  0  0
   -3.5441   -1.5042   -2.3813 H   0  0  0  0  0  0  0  0  0  0  0  0
   -5.2030    3.4513   -0.1990 H   0  0  0  0  0  0  0  0  0  0  0  0
   -6.5265    3.1225   -1.3859 H   0  0  0  0  0  0  0  0  0  0  0  0
   -6.7927    2.9743    0.3967 H   0  0  0  0  0  0  0  0  0  0  0  0
   -8.5617   -0.1703   -1.5823 H   0  0  0  0  0  0  0  0  0  0  0  0
   -7.3953    0.7870   -2.5480 H   0  0  0  0  0  0  0  0  0  0  0  0
   -8.3983    1.5881   -1.3050 H   0  0  0  0  0  0  0  0  0  0  0  0
   -6.9623   -1.8225   -0.3814 H   0  0  0  0  0  0  0  0  0  0  0  0
   -5.9428   -1.2648   -1.7106 H   0  0  0  0  0  0  0  0  0  0  0  0
   -5.3171   -1.2171   -0.0226 H   0  0  0  0  0  0  0  0  0  0  0  0
   -6.6725    0.2921    1.7275 H   0  0  0  0  0  0  0  0  0  0  0  0
   -8.1643   -0.4386    1.0218 H   0  0  0  0  0  0  0  0  0  0  0  0
   -8.0147    1.3265    1.1025 H   0  0  0  0  0  0  0  0  0  0  0  0
   -2.4118    1.7736    0.1645 H   0  0  0  0  0  0  0  0  0  0  0  0
    1.7473   -0.8923   -0.0978 H   0  0  0  0  0  0  0  0  0  0  0  0
    5.9304    0.3346    0.7389 H   0  0  0  0  0  0  0  0  0  0  0  0
  1  2  2  3
  2  3  1  0
  3  4  2  0
  3  5  1  0
  5  6  1  0
  6  7  2  0
  7  8  1  0
  8  9  2  0
  9 10  1  0
 10 11  1  0
 11 12  2  0
 12 13  1  0
 13 14  2  0
 14 15  1  0
 15 16  1  0
 16 17  2  0
 17 18  1  0
 18 19  2  0
 19 20  1  0
 20 21  2  0
 21 22  1  0
 22 23  1  0
 23 24  2  0
 23 25  2  0
 23 26  1  0
 26 27  1  0
 26 28  1  0
 28 29  1  0
 28 30  1  0
 28 31  1  0
 22 32  2  0
 17 33  1  0
 33 34  2  0
 10 35  2  0
 35  6  1  0
 34 11  1  0
 33 14  1  0
 32 18  1  0
  1 36  1  0
  1 37  1  0
  2 38  1  0
  5 39  1  0
  7 40  1  0
  8 41  1  0
  9 42  1  0
 12 43  1  0
 15 44  1  0
 16 45  1  0
 19 46  1  0
 20 47  1  0
 21 48  1  0
 27 49  1  0
 27 50  1  0
 27 51  1  0
 29 52  1  0
 29 53  1  0
 29 54  1  0
 30 55  1  0
 30 56  1  0
 30 57  1  0
 31 58  1  0
 31 59  1  0
 31 60  1  0
 32 61  1  0
 34 62  1  0
 35 63  1  0
M  END
$$$$

     RDKit          3D

 48 51  0  0  0  0  0  0  0  0999 V2000
    3.1270   -4.6735    1.8081 C   0  0  0  0  0  0  0  0  0  0  0  0
    3.6349   -3.4068    1.2916 N   0  0  0  0  0  0  0  0  0  0  0  0
    3.0532   -2.1362    1.6155 C   0  0  0  0  0  0  0  0  0  0  0  0
    2.0280   -2.0752    2.3485 O   0  0  0  0  0  0  0  0  0  0  0  0
    3.6415   -0.8885    1.0797 C   0  0  0  0  0  0  0  0  0  0  0  0
    5.0301   -0.6750    1.1810 C   0  0  0  0  0  0  0  0  0  0  0  0
    5.8306   -1.5908    1.7837 F   0  0  0  0  0  0  0  0  0  0  0  0
    5.6008    0.5039    0.6949 C   0  0  0  0  0  0  0  0  0  0  0  0
    4.8001    1.4780    0.0997 C   0  0  0  0  0  0  0  0  0  0  0  0
    3.4232    1.2803   -0.0088 C   0  0  0  0  0  0  0  0  0  0  0  0
    2.8256    0.1083    0.4908 C   0  0  0  0  0  0  0  0  0  0  0  0
    1.4143   -0.1152    0.3097 N   0  0  0  0  0  0  0  0  0  0  0  0
    0.4166    0.9016    0.5018 C   0  0  0  0  0  0  0  0  0  0  0  0
    0.7476    2.0250    0.9661 O   0  0  0  0  0  0  0  0  0  0  0  0
   -1.0056    0.6000    0.2183 C   0  0  0  0  0  0  0  0  0  0  0  0
   -1.4242   -0.6899    0.3346 N   0  0  0  0  0  0  0  0  0  0  0  0
   -2.6989   -1.0796    0.0713 C   0  0  0  0  0  0  0  0  0  0  0  0
   -3.0333   -2.5461    0.2497 C   0  0  0  0  0  0  0  0  0  0  0  0
   -4.4224   -2.8787    0.7765 C   0  0  0  0  0  0  0  0  0  0  0  0
   -4.0747   -3.1492   -0.6835 C   0  0  0  0  0  0  0  0  0  0  0  0
   -3.6194   -0.1032   -0.3476 C   0  0  0  0  0  0  0  0  0  0  0  0
   -3.2131    1.1840   -0.4810 N   0  0  0  0  0  0  0  0  0  0  0  0
   -1.9369    1.5722   -0.2136 C   0  0  0  0  0  0  0  0  0  0  0  0
   -1.5727    2.9487   -0.4022 N   0  0  0  0  0  0  0  0  0  0  0  0
   -2.0244    3.7264   -1.5232 C   0  0  0  0  0  0  0  0  0  0  0  0
   -2.3773    3.1323   -2.7449 C   0  0  0  0  0  0  0  0  0  0  0  0
   -2.7739    3.9054   -3.7875 N   0  0  0  0  0  0  0  0  0  0  0  0
   -2.8314    5.2570   -3.6730 C   0  0  0  0  0  0  0  0  0  0  0  0
   -2.4803    5.8562   -2.5060 N   0  0  0  0  0  0  0  0  0  0  0  0
   -2.0743    5.1222   -1.4378 C   0  0  0  0  0  0  0  0  0  0  0  0
    2.2929   -4.5225    2.5228 H   0  0  0  0  0  0  0  0  0  0  0  0
    2.7663   -5.2955    0.9643 H   0  0  0  0  0  0  0  0  0  0  0  0
    3.9452   -5.2115    2.3287 H   0  0  0  0  0  0  0  0  0  0  0  0
    4.4371   -3.4432    0.6247 H   0  0  0  0  0  0  0  0  0  0  0  0
    6.6679    0.6644    0.7805 H   0  0  0  0  0  0  0  0  0  0  0  0
    5.2497    2.3836   -0.2877 H   0  0  0  0  0  0  0  0  0  0  0  0
    2.8286    2.0306   -0.5114 H   0  0  0  0  0  0  0  0  0  0  0  0
    1.1005   -1.0809    0.0608 H   0  0  0  0  0  0  0  0  0  0  0  0
   -2.2316   -3.2456    0.5738 H   0  0  0  0  0  0  0  0  0  0  0  0
   -4.4684   -3.7966    1.4011 H   0  0  0  0  0  0  0  0  0  0  0  0
   -5.1217   -2.0307    0.9337 H   0  0  0  0  0  0  0  0  0  0  0  0
   -4.5629   -2.4661   -1.4091 H   0  0  0  0  0  0  0  0  0  0  0  0
   -3.9151   -4.2245   -0.9125 H   0  0  0  0  0  0  0  0  0  0  0  0
   -4.6479   -0.3455   -0.5712 H   0  0  0  0  0  0  0  0  0  0  0  0
   -1.0824    3.4470    0.3718 H   0  0  0  0  0  0  0  0  0  0  0  0
   -2.3219    2.0611   -2.8785 H   0  0  0  0  0  0  0  0  0  0  0  0
   -3.1500    5.8566   -4.5139 H   0  0  0  0  0  0  0  0  0  0  0  0
   -1.7972    5.6256   -0.5198 H   0  0  0  0  0  0  0  0  0  0  0  0
  1  2  1  0
  2  3  1  0
  3  4  2  0
  3  5  1  0
  5  6  2  0
  6  7  1  0
  6  8  1  0
  8  9  2  0
  9 10  1  0
 10 11  2  0
 11 12  1  0
 12 13  1  0
 13 14  2  0
 13 15  1  0
 15 16  2  0
 16 17  1  0
 17 18  1  0
 18 19  1  0
 19 20  1  0
 17 21  2  0
 21 22  1  0
 22 23  2  0
 23 24  1  0
 24 25  1  0
 25 26  2  0
 26 27  1  0
 27 28  2  0
 28 29  1  0
 29 30  2  0
 11  5  1  0
 23 15  1  0
 30 25  1  0
 20 18  1  0
  1 31  1  0
  1 32  1  0
  1 33  1  0
  2 34  1  0
  8 35  1  0
  9 36  1  0
 10 37  1  0
 12 38  1  0
 18 39  1  0
 19 40  1  0
 19 41  1  0
 20 42  1  0
 20 43  1  0
 21 44  1  0
 24 45  1  0
 26 46  1  0
 28 47  1  0
 30 48  1  0
M  END
$$$$

     RDKit          3D

 70 74  0  0  0  0  0  0  0  0999 V2000
    5.2524   -1.5755   -2.4030 C   0  0  0  0  0  0  0  0  0  0  0  0
    5.7726   -1.7679   -0.9820 C   0  0  0  0  0  0  0  0  0  0  0  0
    5.0167   -0.9064   -0.0104 C   0  0  0  0  0  0  0  0  0  0  0  0
    3.7417   -1.0557    0.1803 N   0  0  0  0  0  0  0  0  0  0  0  0
    3.2459   -0.0957    1.1702 C   0  0  0  0  0  0  0  0  0  0  0  0
    2.6950   -0.8599    2.3868 C   0  0  0  0  0  0  0  0  0  0  0  0
    2.0322    0.0707    3.4081 C   0  0  0  0  0  0  0  0  0  0  0  0
    1.3050    1.2670    2.7613 C   0  0  0  0  0  0  0  0  0  0  0  0
    0.9716    1.0568    1.3339 N   0  0  0  0  0  0  0  0  0  0  0  0
   -0.1430    0.1237    0.9850 C   0  0  0  0  0  0  0  0  0  0  0  0
   -0.8851    0.6830   -0.2539 C   0  0  0  0  0  0  0  0  0  0  0  0
   -2.0317   -0.2342   -0.6897 C   0  0  0  0  0  0  0  0  0  0  0  0
   -2.9225   -0.4850    0.4492 N   0  0  0  0  0  0  0  0  0  0  0  0
   -4.3114   -0.0988    0.4247 C   0  0  0  0  0  0  0  0  0  0  0  0
   -4.8798    0.2598    1.4919 O   0  0  0  0  0  0  0  0  0  0  0  0
   -5.0922   -0.0951   -0.8309 C   0  0  0  0  0  0  0  0  0  0  0  0
   -5.9581    0.9425   -1.2070 C   0  0  0  0  0  0  0  0  0  0  0  0
   -6.1704    2.1730   -0.5036 N   0  0  0  0  0  0  0  0  0  0  0  0
   -5.0990    3.0075   -0.0448 C   0  0  0  0  0  0  0  0  0  0  0  0
   -5.3837    4.1606    0.7445 N   0  0  0  0  0  0  0  0  0  0  0  0
   -3.9062    2.7504   -0.3599 O   0  0  0  0  0  0  0  0  0  0  0  0
   -6.7717    0.5350   -2.6280 S   0  0  0  0  0  0  0  0  0  0  0  0
   -6.0199   -0.9554   -2.7980 C   0  0  0  0  0  0  0  0  0  0  0  0
   -6.2255   -1.9006   -3.7998 C   0  0  0  0  0  0  0  0  0  0  0  0
   -5.5209   -3.1097   -3.7270 C   0  0  0  0  0  0  0  0  0  0  0  0
   -4.6428   -3.3554   -2.6565 C   0  0  0  0  0  0  0  0  0  0  0  0
   -4.4545   -2.3915   -1.6528 C   0  0  0  0  0  0  0  0  0  0  0  0
   -5.1401   -1.1706   -1.7424 C   0  0  0  0  0  0  0  0  0  0  0  0
   -2.3104   -1.0178    1.6691 C   0  0  0  0  0  0  0  0  0  0  0  0
   -1.1778   -0.0929    2.1232 C   0  0  0  0  0  0  0  0  0  0  0  0
    2.1913    0.8480    0.5133 C   0  0  0  0  0  0  0  0  0  0  0  0
    4.5056    0.6386    1.5152 C   0  0  0  0  0  0  0  0  0  0  0  0
    4.5902    1.6184    2.3038 O   0  0  0  0  0  0  0  0  0  0  0  0
    5.6079    0.1097    0.7991 N   0  0  0  0  0  0  0  0  0  0  0  0
    6.8926    0.7833    0.6039 C   0  0  0  0  0  0  0  0  0  0  0  0
    6.8176    1.7525   -0.5701 C   0  0  0  0  0  0  0  0  0  0  0  0
    5.3409   -0.5115   -2.7074 H   0  0  0  0  0  0  0  0  0  0  0  0
    4.1878   -1.8871   -2.4714 H   0  0  0  0  0  0  0  0  0  0  0  0
    5.8489   -2.1968   -3.1037 H   0  0  0  0  0  0  0  0  0  0  0  0
    6.8558   -1.5334   -0.9627 H   0  0  0  0  0  0  0  0  0  0  0  0
    5.6511   -2.8329   -0.6887 H   0  0  0  0  0  0  0  0  0  0  0  0
    1.9530   -1.6122    2.0456 H   0  0  0  0  0  0  0  0  0  0  0  0
    3.5102   -1.4310    2.8848 H   0  0  0  0  0  0  0  0  0  0  0  0
    2.8086    0.4597    4.1023 H   0  0  0  0  0  0  0  0  0  0  0  0
    1.3272   -0.5196    4.0302 H   0  0  0  0  0  0  0  0  0  0  0  0
    1.9673    2.1579    2.8317 H   0  0  0  0  0  0  0  0  0  0  0  0
    0.4100    1.5471    3.3525 H   0  0  0  0  0  0  0  0  0  0  0  0
    0.2705   -0.8740    0.7157 H   0  0  0  0  0  0  0  0  0  0  0  0
   -1.2948    1.6887   -0.0145 H   0  0  0  0  0  0  0  0  0  0  0  0
   -0.1932    0.8030   -1.1123 H   0  0  0  0  0  0  0  0  0  0  0  0
   -1.6186   -1.1998   -1.0553 H   0  0  0  0  0  0  0  0  0  0  0  0
   -2.5725    0.2486   -1.5317 H   0  0  0  0  0  0  0  0  0  0  0  0
   -7.1401    2.5611   -0.4804 H   0  0  0  0  0  0  0  0  0  0  0  0
   -6.3650    4.3871    1.0199 H   0  0  0  0  0  0  0  0  0  0  0  0
   -4.6102    4.7844    1.0644 H   0  0  0  0  0  0  0  0  0  0  0  0
   -6.9159   -1.7110   -4.6111 H   0  0  0  0  0  0  0  0  0  0  0  0
   -5.6613   -3.8626   -4.4914 H   0  0  0  0  0  0  0  0  0  0  0  0
   -4.1140   -4.2975   -2.6019 H   0  0  0  0  0  0  0  0  0  0  0  0
   -3.7951   -2.6098   -0.8245 H   0  0  0  0  0  0  0  0  0  0  0  0
   -1.9023   -2.0308    1.4607 H   0  0  0  0  0  0  0  0  0  0  0  0
   -3.0558   -1.1224    2.4870 H   0  0  0  0  0  0  0  0  0  0  0  0
   -1.6171    0.8811    2.4317 H   0  0  0  0  0  0  0  0  0  0  0  0
   -0.6999   -0.5664    3.0022 H   0  0  0  0  0  0  0  0  0  0  0  0
    2.6394    1.8450    0.3067 H   0  0  0  0  0  0  0  0  0  0  0  0
    1.9261    0.4554   -0.4915 H   0  0  0  0  0  0  0  0  0  0  0  0
    7.6957    0.0380    0.4309 H   0  0  0  0  0  0  0  0  0  0  0  0
    7.1597    1.3452    1.5239 H   0  0  0  0  0  0  0  0  0  0  0  0
    6.6652    1.1958   -1.5167 H   0  0  0  0  0  0  0  0  0  0  0  0
    5.9791    2.4655   -0.4278 H   0  0  0  0  0  0  0  0  0  0  0  0
    7.7678    2.3230   -0.6472 H   0  0  0  0  0  0  0  0  0  0  0  0
  1  2  1  0
  2  3  1  0
  3  4  2  0
  4  5  1  0
  5  6  1  0
  6  7  1  0
  7  8  1  0
  8  9  1  0
  9 10  1  0
 10 11  1  0
 11 12  1  0
 12 13  1  0
 13 14  1  0
 14 15  2  0
 14 16  1  0
 16 17  2  0
 17 18  1  0
 18 19  1  0
 19 20  1  0
 19 21  2  0
 17 22  1  0
 22 23  1  0
 23 24  2  0
 24 25  1  0
 25 26  2  0
 26 27  1  0
 27 28  2  0
 13 29  1  0
 29 30  1  0
  9 31  1  0
  5 32  1  0
 32 33  2  0
 32 34  1  0
 34 35  1  0
 35 36  1  0
 34  3  1  0
 31  5  1  0
 30 10  1  0
 28 16  1  0
 28 23  1  0
  1 37  1  0
  1 38  1  0
  1 39  1  0
  2 40  1  0
  2 41  1  0
  6 42  1  0
  6 43  1  0
  7 44  1  0
  7 45  1  0
  8 46  1  0
  8 47  1  0
 10 48  1  0
 11 49  1  0
 11 50  1  0
 12 51  1  0
 12 52  1  0
 18 53  1  0
 20 54  1  0
 20 55  1  0
 24 56  1  0
 25 57  1  0
 26 58  1  0
 27 59  1  0
 29 60  1  0
 29 61  1  0
 30 62  1  0
 30 63  1  0
 31 64  1  0
 31 65  1  0
 35 66  1  0
 35 67  1  0
 36 68  1  0
 36 69  1  0
 36 70  1  0
M  END
$$$$

     RDKit          3D

 75 78  0  0  0  0  0  0  0  0999 V2000
    5.9016   -1.1357   -3.3404 C   0  0  0  0  0  0  0  0  0  0  0  0
    4.9506   -1.3762   -2.1725 C   0  0  0  0  0  0  0  0  0  0  0  0
    3.5667   -0.7683   -2.4466 C   0  0  0  0  0  0  0  0  0  0  0  0
    2.6506   -0.9339   -1.2491 C   0  0  0  0  0  0  0  0  0  0  0  0
    1.7024   -1.9082   -1.3022 N   0  0  0  0  0  0  0  0  0  0  0  0
    0.8242   -2.1341   -0.2941 C   0  0  0  0  0  0  0  0  0  0  0  0
   -0.0327   -3.0516   -0.4261 O   0  0  0  0  0  0  0  0  0  0  0  0
    0.8592   -1.3590    0.8816 C   0  0  0  0  0  0  0  0  0  0  0  0
   -0.2617   -1.5670    1.9021 C   0  0  0  0  0  0  0  0  0  0  0  0
   -1.6125   -1.1919    1.3205 C   0  0  0  0  0  0  0  0  0  0  0  0
   -2.5883   -2.1871    1.1387 C   0  0  0  0  0  0  0  0  0  0  0  0
   -3.8060   -1.8817    0.5197 C   0  0  0  0  0  0  0  0  0  0  0  0
   -4.8017   -2.8557    0.3502 C   0  0  0  0  0  0  0  0  0  0  0  0
   -6.0179   -2.5223   -0.2808 C   0  0  0  0  0  0  0  0  0  0  0  0
   -7.0645   -3.4430   -0.4493 O   0  0  0  0  0  0  0  0  0  0  0  0
   -7.1493   -4.7235    0.1762 C   0  0  0  0  0  0  0  0  0  0  0  0
   -7.4458   -4.5808    1.6654 C   0  0  0  0  0  0  0  0  0  0  0  0
   -6.2041   -1.2214   -0.7641 C   0  0  0  0  0  0  0  0  0  0  0  0
   -5.2195   -0.2464   -0.5899 C   0  0  0  0  0  0  0  0  0  0  0  0
   -4.0256   -0.5691    0.0603 C   0  0  0  0  0  0  0  0  0  0  0  0
   -3.0858    0.3867    0.2696 N   0  0  0  0  0  0  0  0  0  0  0  0
   -1.9088    0.1270    0.9026 C   0  0  0  0  0  0  0  0  0  0  0  0
   -1.0001    1.2076    1.1537 N   0  0  0  0  0  0  0  0  0  0  0  0
   -0.9301    2.3832    0.2935 C   0  0  0  0  0  0  0  0  0  0  0  0
   -0.3050    2.0225   -1.0568 C   0  0  0  0  0  0  0  0  0  0  0  0
   -0.3294    3.1762   -1.9502 N   0  0  0  0  0  0  0  0  0  0  0  0
    0.5241    4.3129   -1.7686 C   0  0  0  0  0  0  0  0  0  0  0  0
    0.3075    5.5438   -2.5896 C   0  0  0  0  0  0  0  0  0  0  0  0
    1.4820    4.2664   -0.9481 O   0  0  0  0  0  0  0  0  0  0  0  0
    1.8957   -0.3881    1.0176 C   0  0  0  0  0  0  0  0  0  0  0  0
    2.0998    0.3417    2.2102 C   0  0  0  0  0  0  0  0  0  0  0  0
    3.0562    1.3674    2.2891 C   0  0  0  0  0  0  0  0  0  0  0  0
    3.2499    2.1224    3.4572 O   0  0  0  0  0  0  0  0  0  0  0  0
    2.5101    1.9592    4.6633 C   0  0  0  0  0  0  0  0  0  0  0  0
    3.8460    1.6646    1.1807 C   0  0  0  0  0  0  0  0  0  0  0  0
    4.7644    2.7227    1.2829 O   0  0  0  0  0  0  0  0  0  0  0  0
    5.5837    3.1902    0.2161 C   0  0  0  0  0  0  0  0  0  0  0  0
    3.7107    0.9045    0.0109 C   0  0  0  0  0  0  0  0  0  0  0  0
    2.7655   -0.1387   -0.0804 C   0  0  0  0  0  0  0  0  0  0  0  0
    6.8931   -1.5825   -3.1091 H   0  0  0  0  0  0  0  0  0  0  0  0
    5.5042   -1.6058   -4.2662 H   0  0  0  0  0  0  0  0  0  0  0  0
    6.0339   -0.0449   -3.5079 H   0  0  0  0  0  0  0  0  0  0  0  0
    5.3988   -0.9379   -1.2547 H   0  0  0  0  0  0  0  0  0  0  0  0
    4.8481   -2.4717   -2.0130 H   0  0  0  0  0  0  0  0  0  0  0  0
    3.1300   -1.2821   -3.3305 H   0  0  0  0  0  0  0  0  0  0  0  0
    3.6420    0.3022   -2.7348 H   0  0  0  0  0  0  0  0  0  0  0  0
    1.6322   -2.5094   -2.1539 H   0  0  0  0  0  0  0  0  0  0  0  0
   -0.1443   -1.0166    2.8457 H   0  0  0  0  0  0  0  0  0  0  0  0
   -0.2496   -2.6363    2.2031 H   0  0  0  0  0  0  0  0  0  0  0  0
   -2.3931   -3.2012    1.4679 H   0  0  0  0  0  0  0  0  0  0  0  0
   -4.6250   -3.8594    0.7111 H   0  0  0  0  0  0  0  0  0  0  0  0
   -7.9841   -5.2854   -0.2922 H   0  0  0  0  0  0  0  0  0  0  0  0
   -6.2227   -5.3119    0.0095 H   0  0  0  0  0  0  0  0  0  0  0  0
   -6.6150   -4.0595    2.1848 H   0  0  0  0  0  0  0  0  0  0  0  0
   -7.5776   -5.5826    2.1183 H   0  0  0  0  0  0  0  0  0  0  0  0
   -8.3859   -4.0062    1.8061 H   0  0  0  0  0  0  0  0  0  0  0  0
   -7.1279   -0.9583   -1.2620 H   0  0  0  0  0  0  0  0  0  0  0  0
   -5.3911    0.7598   -0.9538 H   0  0  0  0  0  0  0  0  0  0  0  0
   -0.4401    1.2058    2.0301 H   0  0  0  0  0  0  0  0  0  0  0  0
   -1.9470    2.7997    0.1438 H   0  0  0  0  0  0  0  0  0  0  0  0
   -0.3123    3.1619    0.7915 H   0  0  0  0  0  0  0  0  0  0  0  0
   -0.8816    1.1952   -1.5222 H   0  0  0  0  0  0  0  0  0  0  0  0
    0.7395    1.6745   -0.9195 H   0  0  0  0  0  0  0  0  0  0  0  0
   -1.0011    3.1738   -2.7472 H   0  0  0  0  0  0  0  0  0  0  0  0
    0.8956    6.3925   -2.1824 H   0  0  0  0  0  0  0  0  0  0  0  0
   -0.7670    5.8197   -2.5749 H   0  0  0  0  0  0  0  0  0  0  0  0
    0.6216    5.3514   -3.6340 H   0  0  0  0  0  0  0  0  0  0  0  0
    1.5398    0.1238    3.0962 H   0  0  0  0  0  0  0  0  0  0  0  0
    2.8696    2.6942    5.4116 H   0  0  0  0  0  0  0  0  0  0  0  0
    2.6638    0.9370    5.0703 H   0  0  0  0  0  0  0  0  0  0  0  0
    1.4298    2.1407    4.4769 H   0  0  0  0  0  0  0  0  0  0  0  0
    4.9535    3.5255   -0.6342 H   0  0  0  0  0  0  0  0  0  0  0  0
    6.2770    2.3886   -0.1157 H   0  0  0  0  0  0  0  0  0  0  0  0
    6.1828    4.0520    0.5707 H   0  0  0  0  0  0  0  0  0  0  0  0
    4.3483    1.1381   -0.8242 H   0  0  0  0  0  0  0  0  0  0  0  0
  1  2  1  0
  2  3  1  0
  3  4  1  0
  4  5  1  0
  5  6  1  0
  6  7  2  0
  6  8  1  0
  8  9  1  0
  9 10  1  0
 10 11  2  0
 11 12  1  0
 12 13  2  0
 13 14  1  0
 14 15  1  0
 15 16  1  0
 16 17  1  0
 14 18  2  0
 18 19  1  0
 19 20  2  0
 20 21  1  0
 21 22  2  0
 22 23  1  0
 23 24  1  0
 24 25  1  0
 25 26  1  0
 26 27  1  0
 27 28  1  0
 27 29  2  0
  8 30  2  0
 30 31  1  0
 31 32  2  0
 32 33  1  0
 33 34  1  0
 32 35  1  0
 35 36  1  0
 36 37  1  0
 35 38  2  0
 38 39  1  0
 39  4  2  0
 22 10  1  0
 39 30  1  0
 20 12  1  0
  1 40  1  0
  1 41  1  0
  1 42  1  0
  2 43  1  0
  2 44  1  0
  3 45  1  0
  3 46  1  0
  5 47  1  0
  9 48  1  0
  9 49  1  0
 11 50  1  0
 13 51  1  0
 16 52  1  0
 16 53  1  0
 17 54  1  0
 17 55  1  0
 17 56  1  0
 18 57  1  0
 19 58  1  0
 23 59  1  0
 24 60  1  0
 24 61  1  0
 25 62  1  0
 25 63  1  0
 26 64  1  0
 28 65  1  0
 28 66  1  0
 28 67  1  0
 31 68  1  0
 34 69  1  0
 34 70  1  0
 34 71  1  0
 37 72  1  0
 37 73  1  0
 37 74  1  0
 38 75  1  0
M  END
$$$$

     RDKit          3D

 52 56  0  0  0  0  0  0  0  0999 V2000
   -0.5392    2.0698    0.8365 O   0  0  0  0  0  0  0  0  0  0  0  0
   -0.3949    0.8389    0.6022 C   0  0  0  0  0  0  0  0  0  0  0  0
    0.8934    0.2263    0.7706 N   0  0  0  0  0  0  0  0  0  0  0  0
    2.0190    0.9213    1.3328 C   0  0  0  0  0  0  0  0  0  0  0  0
    3.2702    0.9142    0.6708 C   0  0  0  0  0  0  0  0  0  0  0  0
    3.4314    0.2894   -0.6596 C   0  0  0  0  0  0  0  0  0  0  0  0
    2.5519    0.4626   -1.5451 O   0  0  0  0  0  0  0  0  0  0  0  0
    4.5672   -0.5252   -0.9563 N   0  0  0  0  0  0  0  0  0  0  0  0
    5.0573   -1.2970   -2.1118 C   0  0  0  0  0  0  0  0  0  0  0  0
    6.2209   -1.9148   -1.4100 C   0  0  0  0  0  0  0  0  0  0  0  0
    5.7140   -1.1255   -0.2489 C   0  0  0  0  0  0  0  0  0  0  0  0
    4.3673    1.5593    1.2655 C   0  0  0  0  0  0  0  0  0  0  0  0
    4.2356    2.1857    2.5057 C   0  0  0  0  0  0  0  0  0  0  0  0
    3.0089    2.1752    3.1690 C   0  0  0  0  0  0  0  0  0  0  0  0
    2.8928    2.7718    4.3814 F   0  0  0  0  0  0  0  0  0  0  0  0
    1.9046    1.5439    2.5907 C   0  0  0  0  0  0  0  0  0  0  0  0
    0.7343    1.5003    3.2767 F   0  0  0  0  0  0  0  0  0  0  0  0
   -1.5514    0.0189    0.1751 C   0  0  0  0  0  0  0  0  0  0  0  0
   -1.5163   -1.3200    0.4154 N   0  0  0  0  0  0  0  0  0  0  0  0
   -2.5475   -2.1507    0.1109 C   0  0  0  0  0  0  0  0  0  0  0  0
   -2.3802   -3.6214    0.4318 C   0  0  0  0  0  0  0  0  0  0  0  0
   -3.6212   -4.3863    0.8706 C   0  0  0  0  0  0  0  0  0  0  0  0
   -3.0306   -4.6209   -0.5145 C   0  0  0  0  0  0  0  0  0  0  0  0
   -3.6990   -1.5949   -0.4727 C   0  0  0  0  0  0  0  0  0  0  0  0
   -3.7412   -0.2639   -0.7306 N   0  0  0  0  0  0  0  0  0  0  0  0
   -2.7074    0.5660   -0.4253 C   0  0  0  0  0  0  0  0  0  0  0  0
   -2.7776    1.9492   -0.8086 N   0  0  0  0  0  0  0  0  0  0  0  0
   -4.0036    2.6998   -0.8462 C   0  0  0  0  0  0  0  0  0  0  0  0
   -5.0926    2.3885   -0.0178 C   0  0  0  0  0  0  0  0  0  0  0  0
   -6.2225    3.1403   -0.0692 N   0  0  0  0  0  0  0  0  0  0  0  0
   -6.3178    4.2022   -0.9101 C   0  0  0  0  0  0  0  0  0  0  0  0
   -5.2705    4.5343   -1.7080 N   0  0  0  0  0  0  0  0  0  0  0  0
   -4.1205    3.8120   -1.6876 C   0  0  0  0  0  0  0  0  0  0  0  0
    1.0523   -0.7239    0.3657 H   0  0  0  0  0  0  0  0  0  0  0  0
    5.3647   -0.6201   -2.9398 H   0  0  0  0  0  0  0  0  0  0  0  0
    4.3044   -2.0504   -2.4344 H   0  0  0  0  0  0  0  0  0  0  0  0
    7.2024   -1.5566   -1.7899 H   0  0  0  0  0  0  0  0  0  0  0  0
    6.1175   -3.0131   -1.2723 H   0  0  0  0  0  0  0  0  0  0  0  0
    5.3697   -1.7707    0.5899 H   0  0  0  0  0  0  0  0  0  0  0  0
    6.4396   -0.3498    0.0795 H   0  0  0  0  0  0  0  0  0  0  0  0
    5.3209    1.6066    0.7572 H   0  0  0  0  0  0  0  0  0  0  0  0
    5.0878    2.6821    2.9520 H   0  0  0  0  0  0  0  0  0  0  0  0
   -1.4303   -3.9662    0.8944 H   0  0  0  0  0  0  0  0  0  0  0  0
   -4.5826   -3.8332    0.8737 H   0  0  0  0  0  0  0  0  0  0  0  0
   -3.4213   -5.2120    1.5859 H   0  0  0  0  0  0  0  0  0  0  0  0
   -2.4852   -5.5836   -0.6092 H   0  0  0  0  0  0  0  0  0  0  0  0
   -3.6347   -4.2093   -1.3489 H   0  0  0  0  0  0  0  0  0  0  0  0
   -4.5547   -2.1988   -0.7362 H   0  0  0  0  0  0  0  0  0  0  0  0
   -1.9175    2.3958   -1.1996 H   0  0  0  0  0  0  0  0  0  0  0  0
   -5.0415    1.5653    0.6817 H   0  0  0  0  0  0  0  0  0  0  0  0
   -7.2258    4.7886   -0.9389 H   0  0  0  0  0  0  0  0  0  0  0  0
   -3.3004    4.0997   -2.3324 H   0  0  0  0  0  0  0  0  0  0  0  0
  1  2  2  0
  2  3  1  0
  3  4  1  0
  4  5  1  0
  5  6  1  0
  6  7  2  0
  6  8  1  0
  8  9  1  0
  9 10  1  0
 10 11  1  0
  5 12  2  0
 12 13  1  0
 13 14  2  0
 14 15  1  0
 14 16  1  0
 16 17  1  0
  2 18  1  0
 18 19  2  0
 19 20  1  0
 20 21  1  0
 21 22  1  0
 22 23  1  0
 20 24  2  0
 24 25  1  0
 25 26  2  0
 26 27  1  0
 27 28  1  0
 28 29  2  0
 29 30  1  0
 30 31  2  0
 31 32  1  0
 32 33  2  0
 16  4  2  0
 26 18  1  0
 33 28  1  0
 11  8  1  0
 23 21  1  0
  3 34  1  0
  9 35  1  0
  9 36  1  0
 10 37  1  0
 10 38  1  0
 11 39  1  0
 11 40  1  0
 12 41  1  0
 13 42  1  0
 21 43  1  0
 22 44  1  0
 22 45  1  0
 23 46  1  0
 23 47  1  0
 24 48  1  0
 27 49  1  0
 29 50  1  0
 31 51  1  0
 33 52  1  0
M  END
$$$$

     RDKit          3D

 50 54  0  0  0  0  0  0  0  0999 V2000
    6.4255   -1.0577   -3.2418 C   0  0  0  0  0  0  0  0  0  0  0  0
    4.6942   -0.6939   -3.4174 S   0  0  0  0  0  6  0  0  0  0  0  0
    4.5308    0.5919   -4.1794 O   0  0  0  0  0  0  0  0  0  0  0  0
    4.0136   -1.7982   -4.1780 O   0  0  0  0  0  0  0  0  0  0  0  0
    3.9784   -0.5311   -1.8159 C   0  0  0  0  0  0  0  0  0  0  0  0
    3.8847    0.7314   -1.2089 C   0  0  0  0  0  0  0  0  0  0  0  0
    3.3596    0.8538    0.0807 C   0  0  0  0  0  0  0  0  0  0  0  0
    2.9131   -0.2805    0.7771 C   0  0  0  0  0  0  0  0  0  0  0  0
    2.3791   -0.1260    2.1467 C   0  0  0  0  0  0  0  0  0  0  0  0
    3.1528    0.5128    3.0676 N   0  0  0  0  0  0  0  0  0  0  0  0
    2.7391    0.7059    4.3456 C   0  0  0  0  0  0  0  0  0  0  0  0
    1.4876    0.2392    4.7344 C   0  0  0  0  0  0  0  0  0  0  0  0
    0.6974   -0.3841    3.8202 N   0  0  0  0  0  0  0  0  0  0  0  0
    1.0841   -0.5624    2.5246 C   0  0  0  0  0  0  0  0  0  0  0  0
    0.1501   -1.2927    1.5774 C   0  0  0  0  0  0  0  0  0  0  0  0
   -1.3178   -1.0912    1.8438 C   0  0  0  0  0  0  0  0  0  0  0  0
   -1.6212   -0.4273    0.5615 N   0  0  0  0  0  0  0  0  0  0  0  0
   -2.7644    0.1177   -0.0913 C   0  0  0  0  0  0  0  0  0  0  0  0
   -2.7090    0.4701   -1.4434 C   0  0  0  0  0  0  0  0  0  0  0  0
   -3.8532    0.9558   -2.0796 C   0  0  0  0  0  0  0  0  0  0  0  0
   -5.0335    1.1249   -1.3419 C   0  0  0  0  0  0  0  0  0  0  0  0
   -6.2027    1.6120   -1.9458 C   0  0  0  0  0  0  0  0  0  0  0  0
   -7.3673    1.7683   -1.1751 C   0  0  0  0  0  0  0  0  0  0  0  0
   -7.3631    1.4611    0.1936 C   0  0  0  0  0  0  0  0  0  0  0  0
   -6.2060    0.9635    0.7941 C   0  0  0  0  0  0  0  0  0  0  0  0
   -5.0392    0.7913    0.0299 C   0  0  0  0  0  0  0  0  0  0  0  0
   -3.9189    0.2862    0.6103 N   0  0  0  0  0  0  0  0  0  0  0  0
   -0.1795   -0.5693    0.3018 C   0  0  0  0  0  0  0  0  0  0  0  0
    3.0292   -1.5481    0.1773 C   0  0  0  0  0  0  0  0  0  0  0  0
    3.5570   -1.6698   -1.1137 C   0  0  0  0  0  0  0  0  0  0  0  0
    6.8958   -1.1618   -4.2414 H   0  0  0  0  0  0  0  0  0  0  0  0
    6.5464   -1.9940   -2.6664 H   0  0  0  0  0  0  0  0  0  0  0  0
    6.9199   -0.2280   -2.6868 H   0  0  0  0  0  0  0  0  0  0  0  0
    4.2250    1.6167   -1.7280 H   0  0  0  0  0  0  0  0  0  0  0  0
    3.2951    1.8362    0.5349 H   0  0  0  0  0  0  0  0  0  0  0  0
    3.3776    1.2200    5.0523 H   0  0  0  0  0  0  0  0  0  0  0  0
    1.1449    0.3712    5.7505 H   0  0  0  0  0  0  0  0  0  0  0  0
    0.4143   -2.3606    1.4187 H   0  0  0  0  0  0  0  0  0  0  0  0
   -1.5566   -0.4077    2.6925 H   0  0  0  0  0  0  0  0  0  0  0  0
   -1.8665   -2.0578    1.9301 H   0  0  0  0  0  0  0  0  0  0  0  0
   -1.7950    0.3350   -2.0151 H   0  0  0  0  0  0  0  0  0  0  0  0
   -3.8141    1.1975   -3.1405 H   0  0  0  0  0  0  0  0  0  0  0  0
   -6.2209    1.8528   -3.0058 H   0  0  0  0  0  0  0  0  0  0  0  0
   -8.2676    2.1453   -1.6402 H   0  0  0  0  0  0  0  0  0  0  0  0
   -8.2574    1.6071    0.7814 H   0  0  0  0  0  0  0  0  0  0  0  0
   -6.2102    0.7303    1.8516 H   0  0  0  0  0  0  0  0  0  0  0  0
    0.2912    0.4343    0.2131 H   0  0  0  0  0  0  0  0  0  0  0  0
   -0.0011   -1.1976   -0.5992 H   0  0  0  0  0  0  0  0  0  0  0  0
    2.7310   -2.4409    0.7115 H   0  0  0  0  0  0  0  0  0  0  0  0
    3.6477   -2.6516   -1.5616 H   0  0  0  0  0  0  0  0  0  0  0  0
  1  2  1  0
  2  3  2  0
  2  4  2  0
  2  5  1  0
  5  6  2  0
  6  7  1  0
  7  8  2  0
  8  9  1  0
  9 10  2  0
 10 11  1  0
 11 12  2  0
 12 13  1  0
 13 14  2  0
 14 15  1  0
 15 16  1  0
 16 17  1  0
 17 18  1  0
 18 19  2  0
 19 20  1  0
 20 21  2  0
 21 22  1  0
 22 23  2  0
 23 24  1  0
 24 25  2  0
 25 26  1  0
 26 27  2  0
 17 28  1  0
  8 29  1  0
 29 30  2  0
 30  5  1  0
 14  9  1  0
 28 15  1  0
 27 18  1  0
 26 21  1  0
  1 31  1  0
  1 32  1  0
  1 33  1  0
  6 34  1  0
  7 35  1  0
 11 36  1  0
 12 37  1  0
 15 38  1  0
 16 39  1  0
 16 40  1  0
 19 41  1  0
 20 42  1  0
 22 43  1  0
 23 44  1  0
 24 45  1  0
 25 46  1  0
 28 47  1  0
 28 48  1  0
 29 49  1  0
 30 50  1  0
M  END
$$$$

     RDKit          3D

 57 61  0  0  0  0  0  0  0  0999 V2000
    6.8289   -3.4136    2.5732 C   0  0  0  0  0  0  0  0  0  0  0  0
    6.3771   -2.7003    1.3671 N   0  0  0  0  0  0  0  0  0  0  0  0
    4.9447   -2.9224    1.1161 C   0  0  0  0  0  0  0  0  0  0  0  0
    4.5843   -1.4769    1.4183 C   0  0  0  0  0  0  0  0  0  0  0  0
    4.0862   -0.7638    0.2404 N   0  0  0  0  0  0  0  0  0  0  0  0
    2.7682   -0.9989   -0.2716 C   0  0  0  0  0  0  0  0  0  0  0  0
    1.9536   -1.7004    0.3870 O   0  0  0  0  0  0  0  0  0  0  0  0
    2.3417   -0.4095   -1.5565 C   0  0  0  0  0  0  0  0  0  0  0  0
    1.0892    0.0977   -1.8479 C   0  0  0  0  0  0  0  0  0  0  0  0
    0.0014    0.2732   -0.9257 N   0  0  0  0  0  0  0  0  0  0  0  0
   -1.3615    0.4948   -1.3264 C   0  0  0  0  0  0  0  0  0  0  0  0
   -1.7009    0.3257   -2.5286 O   0  0  0  0  0  0  0  0  0  0  0  0
   -2.3837    0.8471   -0.3140 C   0  0  0  0  0  0  0  0  0  0  0  0
   -2.1792    0.4660    0.9761 N   0  0  0  0  0  0  0  0  0  0  0  0
   -3.0809    0.6992    1.9654 C   0  0  0  0  0  0  0  0  0  0  0  0
   -2.7306    0.2212    3.3592 C   0  0  0  0  0  0  0  0  0  0  0  0
   -3.2045    1.0740    4.5277 C   0  0  0  0  0  0  0  0  0  0  0  0
   -3.8729   -0.2650    4.2404 C   0  0  0  0  0  0  0  0  0  0  0  0
   -4.2759    1.3605    1.6334 C   0  0  0  0  0  0  0  0  0  0  0  0
   -4.4854    1.7591    0.3538 N   0  0  0  0  0  0  0  0  0  0  0  0
   -3.5816    1.5232   -0.6354 C   0  0  0  0  0  0  0  0  0  0  0  0
   -3.8193    2.0536   -1.9502 N   0  0  0  0  0  0  0  0  0  0  0  0
   -5.1318    2.2268   -2.5118 C   0  0  0  0  0  0  0  0  0  0  0  0
   -5.3495    3.1906   -3.5029 C   0  0  0  0  0  0  0  0  0  0  0  0
   -6.5835    3.3404   -4.0499 N   0  0  0  0  0  0  0  0  0  0  0  0
   -7.6205    2.5561   -3.6584 C   0  0  0  0  0  0  0  0  0  0  0  0
   -7.4312    1.5992   -2.7138 N   0  0  0  0  0  0  0  0  0  0  0  0
   -6.2147    1.4162   -2.1383 C   0  0  0  0  0  0  0  0  0  0  0  0
    1.1619    0.5321   -3.1598 C   0  0  0  0  0  0  0  0  0  0  0  0
    2.3936    0.2671   -3.6388 N   0  0  0  0  0  0  0  0  0  0  0  0
    3.0963   -0.3115   -2.6753 N   0  0  0  0  0  0  0  0  0  0  0  0
    4.4739   -0.7567   -2.8611 C   0  0  0  0  0  0  0  0  0  0  0  0
    6.0760   -1.2899    1.6571 C   0  0  0  0  0  0  0  0  0  0  0  0
    6.1586   -3.2374    3.4459 H   0  0  0  0  0  0  0  0  0  0  0  0
    7.8550   -3.0803    2.8370 H   0  0  0  0  0  0  0  0  0  0  0  0
    6.8664   -4.5041    2.3657 H   0  0  0  0  0  0  0  0  0  0  0  0
    4.4556   -3.6351    1.8202 H   0  0  0  0  0  0  0  0  0  0  0  0
    4.7759   -3.2035    0.0530 H   0  0  0  0  0  0  0  0  0  0  0  0
    3.9582   -1.3384    2.3267 H   0  0  0  0  0  0  0  0  0  0  0  0
    4.6610   -0.0027   -0.1846 H   0  0  0  0  0  0  0  0  0  0  0  0
    0.2215    0.2388    0.0943 H   0  0  0  0  0  0  0  0  0  0  0  0
   -1.7608   -0.2966    3.5223 H   0  0  0  0  0  0  0  0  0  0  0  0
   -2.5315    1.0556    5.4108 H   0  0  0  0  0  0  0  0  0  0  0  0
   -3.8273    1.9602    4.2882 H   0  0  0  0  0  0  0  0  0  0  0  0
   -3.5907   -1.0660    4.9557 H   0  0  0  0  0  0  0  0  0  0  0  0
   -4.8996   -0.1881    3.8277 H   0  0  0  0  0  0  0  0  0  0  0  0
   -5.0345    1.5754    2.3715 H   0  0  0  0  0  0  0  0  0  0  0  0
   -3.0069    2.4476   -2.4764 H   0  0  0  0  0  0  0  0  0  0  0  0
   -4.5401    3.8278   -3.8344 H   0  0  0  0  0  0  0  0  0  0  0  0
   -8.5964    2.6887   -4.1046 H   0  0  0  0  0  0  0  0  0  0  0  0
   -6.0930    0.6275   -1.4087 H   0  0  0  0  0  0  0  0  0  0  0  0
    0.3928    1.0392   -3.7252 H   0  0  0  0  0  0  0  0  0  0  0  0
    4.6572   -1.6966   -2.2991 H   0  0  0  0  0  0  0  0  0  0  0  0
    5.1728    0.0328   -2.5161 H   0  0  0  0  0  0  0  0  0  0  0  0
    4.6654   -0.9546   -3.9369 H   0  0  0  0  0  0  0  0  0  0  0  0
    6.5733   -0.6290    0.9142 H   0  0  0  0  0  0  0  0  0  0  0  0
    6.2975   -0.9761    2.7038 H   0  0  0  0  0  0  0  0  0  0  0  0
  1  2  1  0
  2  3  1  0
  3  4  1  0
  4  5  1  0
  5  6  1  0
  6  7  2  0
  6  8  1  0
  8  9  2  0
  9 10  1  0
 10 11  1  0
 11 12  2  0
 11 13  1  0
 13 14  2  0
 14 15  1  0
 15 16  1  0
 16 17  1  0
 17 18  1  0
 15 19  2  0
 19 20  1  0
 20 21  2  0
 21 22  1  0
 22 23  1  0
 23 24  2  0
 24 25  1  0
 25 26  2  0
 26 27  1  0
 27 28  2  0
  9 29  1  0
 29 30  2  0
 30 31  1  0
 31 32  1  0
  4 33  1  0
 33  2  1  0
 31  8  1  0
 21 13  1  0
 28 23  1  0
 18 16  1  0
  1 34  1  0
  1 35  1  0
  1 36  1  0
  3 37  1  0
  3 38  1  0
  4 39  1  0
  5 40  1  0
 10 41  1  0
 16 42  1  0
 17 43  1  0
 17 44  1  0
 18 45  1  0
 18 46  1  0
 19 47  1  0
 22 48  1  0
 24 49  1  0
 26 50  1  0
 28 51  1  0
 29 52  1  0
 32 53  1  0
 32 54  1  0
 32 55  1  0
 33 56  1  0
 33 57  1  0
M  END
$$$$

     RDKit          3D

 73 77  0  0  0  0  0  0  0  0999 V2000
    9.6620    3.2007    0.1079 C   0  0  0  0  0  0  0  0  0  0  0  0
    8.4906    3.8184   -0.6500 C   0  0  0  0  0  0  0  0  0  0  0  0
    7.2295    3.2078   -0.2310 N   0  0  0  0  0  0  0  0  0  0  0  0
    6.8282    1.8953   -0.6503 C   0  0  0  0  0  0  0  0  0  0  0  0
    7.5635    1.2329   -1.4329 O   0  0  0  0  0  0  0  0  0  0  0  0
    5.5906    1.3453   -0.1680 N   0  0  0  0  0  0  0  0  0  0  0  0
    5.0233    0.0981   -0.6095 C   0  0  0  0  0  0  0  0  0  0  0  0
    5.4630   -0.7422   -2.0149 S   0  0  0  0  0  0  0  0  0  0  0  0
    4.2808   -1.9225   -1.8642 C   0  0  0  0  0  0  0  0  0  0  0  0
    4.0265   -2.9895   -2.7205 C   0  0  0  0  0  0  0  0  0  0  0  0
    2.9638   -3.8499   -2.4097 C   0  0  0  0  0  0  0  0  0  0  0  0
    2.1928   -3.6387   -1.2504 C   0  0  0  0  0  0  0  0  0  0  0  0
    2.4754   -2.5645   -0.3948 C   0  0  0  0  0  0  0  0  0  0  0  0
    3.5182   -1.6869   -0.7263 C   0  0  0  0  0  0  0  0  0  0  0  0
    3.9194   -0.5352   -0.0164 C   0  0  0  0  0  0  0  0  0  0  0  0
    3.2510   -0.0313    1.2044 C   0  0  0  0  0  0  0  0  0  0  0  0
    3.9627    0.2483    2.2074 O   0  0  0  0  0  0  0  0  0  0  0  0
    1.8181    0.1495    1.2618 N   0  0  0  0  0  0  0  0  0  0  0  0
    1.0647    0.5494    0.0646 C   0  0  0  0  0  0  0  0  0  0  0  0
   -0.3019   -0.1431    0.0355 C   0  0  0  0  0  0  0  0  0  0  0  0
   -1.0627    0.0929    1.3625 C   0  0  0  0  0  0  0  0  0  0  0  0
   -2.4236   -0.5125    1.3983 N   0  0  0  0  0  0  0  0  0  0  0  0
   -2.4554   -1.9964    1.4875 C   0  0  0  0  0  0  0  0  0  0  0  0
   -3.8623   -2.5788    1.2283 C   0  0  0  0  0  0  0  0  0  0  0  0
   -4.9502   -1.5519    1.5579 C   0  0  0  0  0  0  0  0  0  0  0  0
   -4.7915   -0.2627    0.6997 C   0  0  0  0  0  0  0  0  0  0  0  0
   -5.4085    0.9732    1.4205 C   0  0  0  0  0  0  0  0  0  0  0  0
   -6.3338    1.6793    0.4097 C   0  0  0  0  0  0  0  0  0  0  0  0
   -6.4874    0.7602   -0.7007 N   0  0  0  0  0  0  0  0  0  0  0  0
   -7.3043    1.0221   -1.8824 C   0  0  0  0  0  0  0  0  0  0  0  0
   -8.5154    0.0972   -1.9046 C   0  0  0  0  0  0  0  0  0  0  0  0
   -5.6122   -0.3393   -0.5430 C   0  0  0  0  0  0  0  0  0  0  0  0
   -5.5268   -1.2718   -1.3905 O   0  0  0  0  0  0  0  0  0  0  0  0
   -3.3041   -0.0136    0.3223 C   0  0  0  0  0  0  0  0  0  0  0  0
   -0.2042   -0.3625    2.5630 C   0  0  0  0  0  0  0  0  0  0  0  0
    1.1572    0.3385    2.5610 C   0  0  0  0  0  0  0  0  0  0  0  0
    9.5189    3.3344    1.2004 H   0  0  0  0  0  0  0  0  0  0  0  0
   10.6062    3.7023   -0.1941 H   0  0  0  0  0  0  0  0  0  0  0  0
    9.7424    2.1162   -0.1168 H   0  0  0  0  0  0  0  0  0  0  0  0
    8.4611    4.9082   -0.4332 H   0  0  0  0  0  0  0  0  0  0  0  0
    8.6315    3.6872   -1.7444 H   0  0  0  0  0  0  0  0  0  0  0  0
    6.5841    3.7657    0.3673 H   0  0  0  0  0  0  0  0  0  0  0  0
    5.0673    1.9044    0.5427 H   0  0  0  0  0  0  0  0  0  0  0  0
    4.6238   -3.1430   -3.6097 H   0  0  0  0  0  0  0  0  0  0  0  0
    2.7333   -4.6772   -3.0637 H   0  0  0  0  0  0  0  0  0  0  0  0
    1.3811   -4.3149   -1.0139 H   0  0  0  0  0  0  0  0  0  0  0  0
    1.8863   -2.4268    0.5027 H   0  0  0  0  0  0  0  0  0  0  0  0
    1.6079    0.2945   -0.8680 H   0  0  0  0  0  0  0  0  0  0  0  0
    0.9265    1.6519    0.0757 H   0  0  0  0  0  0  0  0  0  0  0  0
   -0.1503   -1.2234   -0.1523 H   0  0  0  0  0  0  0  0  0  0  0  0
   -0.8705    0.2800   -0.8157 H   0  0  0  0  0  0  0  0  0  0  0  0
   -1.1901    1.1943    1.4751 H   0  0  0  0  0  0  0  0  0  0  0  0
   -1.7460   -2.4650    0.7771 H   0  0  0  0  0  0  0  0  0  0  0  0
   -2.1608   -2.2980    2.5159 H   0  0  0  0  0  0  0  0  0  0  0  0
   -4.0104   -3.4928    1.8453 H   0  0  0  0  0  0  0  0  0  0  0  0
   -3.9497   -2.8802    0.1609 H   0  0  0  0  0  0  0  0  0  0  0  0
   -4.8610   -1.3094    2.6400 H   0  0  0  0  0  0  0  0  0  0  0  0
   -5.9541   -2.0065    1.4109 H   0  0  0  0  0  0  0  0  0  0  0  0
   -6.0238    0.6632    2.2974 H   0  0  0  0  0  0  0  0  0  0  0  0
   -4.6299    1.6747    1.8002 H   0  0  0  0  0  0  0  0  0  0  0  0
   -5.8679    2.6236    0.0501 H   0  0  0  0  0  0  0  0  0  0  0  0
   -7.3259    1.8962    0.8662 H   0  0  0  0  0  0  0  0  0  0  0  0
   -7.6601    2.0770   -1.8727 H   0  0  0  0  0  0  0  0  0  0  0  0
   -6.6986    0.8684   -2.8020 H   0  0  0  0  0  0  0  0  0  0  0  0
   -8.1906   -0.9603   -1.9875 H   0  0  0  0  0  0  0  0  0  0  0  0
   -9.1534    0.3412   -2.7780 H   0  0  0  0  0  0  0  0  0  0  0  0
   -9.1117    0.2237   -0.9769 H   0  0  0  0  0  0  0  0  0  0  0  0
   -3.0571   -0.5426   -0.6269 H   0  0  0  0  0  0  0  0  0  0  0  0
   -3.1318    1.0697    0.1299 H   0  0  0  0  0  0  0  0  0  0  0  0
   -0.7362   -0.1297    3.5115 H   0  0  0  0  0  0  0  0  0  0  0  0
   -0.0210   -1.4592    2.5195 H   0  0  0  0  0  0  0  0  0  0  0  0
    1.0268    1.4272    2.7564 H   0  0  0  0  0  0  0  0  0  0  0  0
    1.7668   -0.0910    3.3865 H   0  0  0  0  0  0  0  0  0  0  0  0
  1  2  1  0
  2  3  1  0
  3  4  1  0
  4  5  2  0
  4  6  1  0
  6  7  1  0
  7  8  1  0
  8  9  1  0
  9 10  2  0
 10 11  1  0
 11 12  2  0
 12 13  1  0
 13 14  2  0
 14 15  1  0
 15 16  1  0
 16 17  2  0
 16 18  1  0
 18 19  1  0
 19 20  1  0
 20 21  1  0
 21 22  1  0
 22 23  1  0
 23 24  1  0
 24 25  1  0
 25 26  1  0
 26 27  1  0
 27 28  1  0
 28 29  1  0
 29 30  1  0
 30 31  1  0
 29 32  1  0
 32 33  2  0
 26 34  1  0
 21 35  1  0
 35 36  1  0
 15  7  2  0
 36 18  1  0
 14  9  1  0
 34 22  1  0
 32 26  1  0
  1 37  1  0
  1 38  1  0
  1 39  1  0
  2 40  1  0
  2 41  1  0
  3 42  1  0
  6 43  1  0
 10 44  1  0
 11 45  1  0
 12 46  1  0
 13 47  1  0
 19 48  1  0
 19 49  1  0
 20 50  1  0
 20 51  1  0
 21 52  1  0
 23 53  1  0
 23 54  1  0
 24 55  1  0
 24 56  1  0
 25 57  1  0
 25 58  1  0
 27 59  1  0
 27 60  1  0
 28 61  1  0
 28 62  1  0
 30 63  1  0
 30 64  1  0
 31 65  1  0
 31 66  1  0
 31 67  1  0
 34 68  1  0
 34 69  1  0
 35 70  1  0
 35 71  1  0
 36 72  1  0
 36 73  1  0
M  END
$$$$

     RDKit          3D

 59 64  0  0  0  0  0  0  0  0999 V2000
   -4.1768   -1.7411   -1.6981 O   0  0  0  0  0  0  0  0  0  0  0  0
   -4.8218   -1.9064   -0.3485 S   0  0  0  0  0  6  0  0  0  0  0  0
   -5.2346   -3.3445   -0.1870 O   0  0  0  0  0  0  0  0  0  0  0  0
   -6.2553   -0.8858   -0.2441 C   0  0  0  0  0  0  0  0  0  0  0  0
   -7.2808   -1.2109    0.6591 C   0  0  0  0  0  0  0  0  0  0  0  0
   -8.4227   -0.4083    0.7425 C   0  0  0  0  0  0  0  0  0  0  0  0
   -8.5412    0.7279   -0.0660 C   0  0  0  0  0  0  0  0  0  0  0  0
   -7.5170    1.0629   -0.9561 C   0  0  0  0  0  0  0  0  0  0  0  0
   -6.3766    0.2579   -1.0482 C   0  0  0  0  0  0  0  0  0  0  0  0
   -3.6592   -1.4651    0.9488 C   0  0  0  0  0  0  0  0  0  0  0  0
   -2.4186   -2.3612    0.8946 C   0  0  0  0  0  0  0  0  0  0  0  0
   -1.3967   -1.5918    0.0693 C   0  0  0  0  0  0  0  0  0  0  0  0
   -1.8184   -0.2020    0.1333 N   0  0  0  0  0  0  0  0  0  0  0  0
   -1.2504    0.8110   -0.7095 C   0  0  0  0  0  0  0  0  0  0  0  0
   -1.9972    1.3250   -1.7252 N   0  0  0  0  0  0  0  0  0  0  0  0
   -1.5040    2.2621   -2.5731 C   0  0  0  0  0  0  0  0  0  0  0  0
   -0.1968    2.7069   -2.4093 C   0  0  0  0  0  0  0  0  0  0  0  0
    0.5533    2.2101   -1.3933 N   0  0  0  0  0  0  0  0  0  0  0  0
    0.0647    1.2849   -0.5200 C   0  0  0  0  0  0  0  0  0  0  0  0
    0.9389    0.7624    0.6028 C   0  0  0  0  0  0  0  0  0  0  0  0
    2.0083   -0.1749    0.1252 C   0  0  0  0  0  0  0  0  0  0  0  0
    3.1490    0.6866    0.4871 N   0  0  0  0  0  0  0  0  0  0  0  0
    4.5708    0.6249    0.3968 C   0  0  0  0  0  0  0  0  0  0  0  0
    5.3570    1.6968    0.8380 C   0  0  0  0  0  0  0  0  0  0  0  0
    6.7482    1.6185    0.7372 C   0  0  0  0  0  0  0  0  0  0  0  0
    7.3436    0.4706    0.1977 C   0  0  0  0  0  0  0  0  0  0  0  0
    8.7380    0.3552    0.0831 C   0  0  0  0  0  0  0  0  0  0  0  0
    9.3013   -0.8066   -0.4561 C   0  0  0  0  0  0  0  0  0  0  0  0
    8.4790   -1.8542   -0.8845 C   0  0  0  0  0  0  0  0  0  0  0  0
    7.0884   -1.7468   -0.7759 C   0  0  0  0  0  0  0  0  0  0  0  0
    6.5155   -0.5892   -0.2356 C   0  0  0  0  0  0  0  0  0  0  0  0
    5.1635   -0.4830   -0.1249 N   0  0  0  0  0  0  0  0  0  0  0  0
    2.1167    1.6188    0.9805 C   0  0  0  0  0  0  0  0  0  0  0  0
   -3.1234   -0.0463    0.7536 C   0  0  0  0  0  0  0  0  0  0  0  0
   -7.1967   -2.0852    1.2946 H   0  0  0  0  0  0  0  0  0  0  0  0
   -9.2161   -0.6679    1.4344 H   0  0  0  0  0  0  0  0  0  0  0  0
   -9.4261    1.3475   -0.0013 H   0  0  0  0  0  0  0  0  0  0  0  0
   -7.6067    1.9464   -1.5751 H   0  0  0  0  0  0  0  0  0  0  0  0
   -5.5911    0.5298   -1.7419 H   0  0  0  0  0  0  0  0  0  0  0  0
   -4.1702   -1.5610    1.9306 H   0  0  0  0  0  0  0  0  0  0  0  0
   -2.6214   -3.3638    0.4621 H   0  0  0  0  0  0  0  0  0  0  0  0
   -2.0242   -2.4972    1.9259 H   0  0  0  0  0  0  0  0  0  0  0  0
   -1.4153   -1.9403   -0.9869 H   0  0  0  0  0  0  0  0  0  0  0  0
   -0.3781   -1.7242    0.4891 H   0  0  0  0  0  0  0  0  0  0  0  0
   -2.1214    2.6498   -3.3725 H   0  0  0  0  0  0  0  0  0  0  0  0
    0.2194    3.4454   -3.0811 H   0  0  0  0  0  0  0  0  0  0  0  0
    0.3859    0.3934    1.4952 H   0  0  0  0  0  0  0  0  0  0  0  0
    1.9939   -0.3660   -0.9725 H   0  0  0  0  0  0  0  0  0  0  0  0
    2.0327   -1.1213    0.7103 H   0  0  0  0  0  0  0  0  0  0  0  0
    4.8959    2.5835    1.2531 H   0  0  0  0  0  0  0  0  0  0  0  0
    7.3547    2.4493    1.0787 H   0  0  0  0  0  0  0  0  0  0  0  0
    9.3882    1.1572    0.4103 H   0  0  0  0  0  0  0  0  0  0  0  0
   10.3768   -0.8972   -0.5416 H   0  0  0  0  0  0  0  0  0  0  0  0
    8.9206   -2.7510   -1.3006 H   0  0  0  0  0  0  0  0  0  0  0  0
    6.4598   -2.5637   -1.1092 H   0  0  0  0  0  0  0  0  0  0  0  0
    2.1838    2.5984    0.4578 H   0  0  0  0  0  0  0  0  0  0  0  0
    2.2048    1.7449    2.0838 H   0  0  0  0  0  0  0  0  0  0  0  0
   -2.9979    0.4555    1.7367 H   0  0  0  0  0  0  0  0  0  0  0  0
   -3.7961    0.5726    0.1244 H   0  0  0  0  0  0  0  0  0  0  0  0
  1  2  2  0
  2  3  2  0
  2  4  1  0
  4  5  2  0
  5  6  1  0
  6  7  2  0
  7  8  1  0
  8  9  2  0
  2 10  1  0
 10 11  1  0
 11 12  1  0
 12 13  1  0
 13 14  1  0
 14 15  2  0
 15 16  1  0
 16 17  2  0
 17 18  1  0
 18 19  2  0
 19 20  1  0
 20 21  1  0
 21 22  1  0
 22 23  1  0
 23 24  2  0
 24 25  1  0
 25 26  2  0
 26 27  1  0
 27 28  2  0
 28 29  1  0
 29 30  2  0
 30 31  1  0
 31 32  2  0
 22 33  1  0
 13 34  1  0
  9  4  1  0
 34 10  1  0
 19 14  1  0
 33 20  1  0
 32 23  1  0
 31 26  1  0
  5 35  1  0
  6 36  1  0
  7 37  1  0
  8 38  1  0
  9 39  1  0
 10 40  1  0
 11 41  1  0
 11 42  1  0
 12 43  1  0
 12 44  1  0
 16 45  1  0
 17 46  1  0
 20 47  1  0
 21 48  1  0
 21 49  1  0
 24 50  1  0
 25 51  1  0
 27 52  1  0
 28 53  1  0
 29 54  1  0
 30 55  1  0
 33 56  1  0
 33 57  1  0
 34 58  1  0
 34 59  1  0
M  END
$$$$

     RDKit          3D

 69 73  0  0  0  0  0  0  0  0999 V2000
   -5.9867    2.9959   -1.6390 C   0  0  0  0  0  0  0  0  0  0  0  0
   -6.2466    1.9863   -0.5203 C   0  0  0  0  0  0  0  0  0  0  0  0
   -6.1130    2.6471    0.8527 C   0  0  0  0  0  0  0  0  0  0  0  0
   -5.2953    0.8776   -0.6251 N   0  0  0  0  0  0  0  0  0  0  0  0
   -5.7017   -0.4606   -0.9620 C   0  0  0  0  0  0  0  0  0  0  0  0
   -6.8081   -0.6388   -1.7365 N   0  0  0  0  0  0  0  0  0  0  0  0
   -7.2234   -1.8632   -2.1487 C   0  0  0  0  0  0  0  0  0  0  0  0
   -6.5070   -3.0017   -1.7916 C   0  0  0  0  0  0  0  0  0  0  0  0
   -5.3668   -2.8739   -0.9899 C   0  0  0  0  0  0  0  0  0  0  0  0
   -4.6468   -4.0115   -0.6040 C   0  0  0  0  0  0  0  0  0  0  0  0
   -3.5227   -3.8896    0.2129 C   0  0  0  0  0  0  0  0  0  0  0  0
   -3.0975   -2.6310    0.6646 C   0  0  0  0  0  0  0  0  0  0  0  0
   -1.9027   -2.5525    1.5392 C   0  0  0  0  0  0  0  0  0  0  0  0
   -1.7619   -3.4132    2.4505 O   0  0  0  0  0  0  0  0  0  0  0  0
   -0.8274   -1.6314    1.2808 N   0  0  0  0  0  0  0  0  0  0  0  0
    0.5407   -2.1583    1.2050 C   0  0  0  0  0  0  0  0  0  0  0  0
    1.3871   -1.2695    0.2901 C   0  0  0  0  0  0  0  0  0  0  0  0
    1.4441    0.2162    0.7714 C   0  0  0  0  0  0  0  0  0  0  0  0
    0.2423    0.5635    1.7001 C   0  0  0  0  0  0  0  0  0  0  0  0
   -1.0442   -0.1779    1.3141 C   0  0  0  0  0  0  0  0  0  0  0  0
    2.7686    0.4567    1.5815 C   0  0  0  0  0  0  0  0  0  0  0  0
    3.9484    0.5990    0.6683 C   0  0  0  0  0  0  0  0  0  0  0  0
    5.2973    0.5364    0.9292 C   0  0  0  0  0  0  0  0  0  0  0  0
    5.9566    0.9076   -0.1971 N   0  0  0  0  0  0  0  0  0  0  0  0
    7.4205    1.0393   -0.3407 C   0  0  0  0  0  0  0  0  0  0  0  0
    7.7965    1.3319   -1.8095 C   0  0  0  0  0  0  0  0  0  0  0  0
    7.9147    2.1985    0.5432 C   0  0  0  0  0  0  0  0  0  0  0  0
    8.1074   -0.2723    0.0891 C   0  0  0  0  0  0  0  0  0  0  0  0
    5.0780    1.2420   -1.1382 N   0  0  0  0  0  0  0  0  0  0  0  0
    3.8562    1.0473   -0.6128 C   0  0  0  0  0  0  0  0  0  0  0  0
    2.5670    1.3605   -1.2068 C   0  0  0  0  0  0  0  0  0  0  0  0
    2.4804    1.8748   -2.3530 O   0  0  0  0  0  0  0  0  0  0  0  0
    1.3924    1.0908   -0.4262 N   0  0  0  0  0  0  0  0  0  0  0  0
   -3.8320   -1.4899    0.2984 C   0  0  0  0  0  0  0  0  0  0  0  0
   -4.9515   -1.5919   -0.5534 C   0  0  0  0  0  0  0  0  0  0  0  0
   -6.7177    3.8307   -1.5813 H   0  0  0  0  0  0  0  0  0  0  0  0
   -6.0981    2.4992   -2.6262 H   0  0  0  0  0  0  0  0  0  0  0  0
   -4.9584    3.4097   -1.5613 H   0  0  0  0  0  0  0  0  0  0  0  0
   -7.2907    1.6151   -0.6188 H   0  0  0  0  0  0  0  0  0  0  0  0
   -6.8488    3.4731    0.9551 H   0  0  0  0  0  0  0  0  0  0  0  0
   -5.0890    3.0555    0.9924 H   0  0  0  0  0  0  0  0  0  0  0  0
   -6.3112    1.8998    1.6501 H   0  0  0  0  0  0  0  0  0  0  0  0
   -4.2803    1.0999   -0.5170 H   0  0  0  0  0  0  0  0  0  0  0  0
   -8.1089   -1.9510   -2.7637 H   0  0  0  0  0  0  0  0  0  0  0  0
   -6.8448   -3.9735   -2.1319 H   0  0  0  0  0  0  0  0  0  0  0  0
   -4.9541   -4.9975   -0.9326 H   0  0  0  0  0  0  0  0  0  0  0  0
   -2.9779   -4.7839    0.4904 H   0  0  0  0  0  0  0  0  0  0  0  0
    0.9856   -2.1959    2.2227 H   0  0  0  0  0  0  0  0  0  0  0  0
    0.5312   -3.1899    0.7884 H   0  0  0  0  0  0  0  0  0  0  0  0
    2.4062   -1.7049    0.1985 H   0  0  0  0  0  0  0  0  0  0  0  0
    0.9364   -1.3185   -0.7266 H   0  0  0  0  0  0  0  0  0  0  0  0
    0.4796    0.2871    2.7524 H   0  0  0  0  0  0  0  0  0  0  0  0
    0.0551    1.6599    1.6915 H   0  0  0  0  0  0  0  0  0  0  0  0
   -1.3881    0.1681    0.3163 H   0  0  0  0  0  0  0  0  0  0  0  0
   -1.8162    0.0703    2.0746 H   0  0  0  0  0  0  0  0  0  0  0  0
    2.9465   -0.3793    2.2930 H   0  0  0  0  0  0  0  0  0  0  0  0
    2.6915    1.3956    2.1725 H   0  0  0  0  0  0  0  0  0  0  0  0
    5.7587    0.2830    1.8749 H   0  0  0  0  0  0  0  0  0  0  0  0
    8.8990    1.4145   -1.9262 H   0  0  0  0  0  0  0  0  0  0  0  0
    7.4348    0.5165   -2.4724 H   0  0  0  0  0  0  0  0  0  0  0  0
    7.3419    2.2878   -2.1478 H   0  0  0  0  0  0  0  0  0  0  0  0
    7.4091    3.1448    0.2541 H   0  0  0  0  0  0  0  0  0  0  0  0
    9.0124    2.3360    0.4357 H   0  0  0  0  0  0  0  0  0  0  0  0
    7.6915    1.9996    1.6132 H   0  0  0  0  0  0  0  0  0  0  0  0
    7.7138   -1.1248   -0.5052 H   0  0  0  0  0  0  0  0  0  0  0  0
    7.9280   -0.4839    1.1644 H   0  0  0  0  0  0  0  0  0  0  0  0
    9.2063   -0.2107   -0.0664 H   0  0  0  0  0  0  0  0  0  0  0  0
    0.4649    1.3629   -0.8245 H   0  0  0  0  0  0  0  0  0  0  0  0
   -3.5710   -0.5395    0.7257 H   0  0  0  0  0  0  0  0  0  0  0  0
  1  2  1  0
  2  3  1  0
  2  4  1  0
  4  5  1  0
  5  6  2  0
  6  7  1  0
  7  8  2  0
  8  9  1  0
  9 10  2  0
 10 11  1  0
 11 12  2  0
 12 13  1  0
 13 14  2  0
 13 15  1  0
 15 16  1  0
 16 17  1  0
 17 18  1  0
 18 19  1  0
 19 20  1  0
 18 21  1  0
 21 22  1  0
 22 23  2  0
 23 24  1  0
 24 25  1  0
 25 26  1  0
 25 27  1  0
 25 28  1  0
 24 29  1  0
 29 30  2  0
 30 31  1  0
 31 32  2  0
 31 33  1  0
 12 34  1  0
 34 35  2  0
 35  5  1  0
 35  9  1  0
 20 15  1  0
 30 22  1  0
 33 18  1  0
  1 36  1  0
  1 37  1  0
  1 38  1  0
  2 39  1  0
  3 40  1  0
  3 41  1  0
  3 42  1  0
  4 43  1  0
  7 44  1  0
  8 45  1  0
 10 46  1  0
 11 47  1  0
 16 48  1  0
 16 49  1  0
 17 50  1  0
 17 51  1  0
 19 52  1  0
 19 53  1  0
 20 54  1  0
 20 55  1  0
 21 56  1  0
 21 57  1  0
 23 58  1  0
 26 59  1  0
 26 60  1  0
 26 61  1  0
 27 62  1  0
 27 63  1  0
 27 64  1  0
 28 65  1  0
 28 66  1  0
 28 67  1  0
 33 68  1  0
 34 69  1  0
M  END
$$$$

     RDKit          3D

 86 91  0  0  0  0  0  0  0  0999 V2000
    4.2096    5.8718   -0.7708 C   0  0  0  0  0  0  0  0  0  0  0  0
    4.3233    4.4840   -0.4565 O   0  0  0  0  0  0  0  0  0  0  0  0
    5.5395    3.8030   -0.2823 C   0  0  0  0  0  0  0  0  0  0  0  0
    6.7809    4.4316   -0.5172 C   0  0  0  0  0  0  0  0  0  0  0  0
    7.9742    3.7209   -0.3610 C   0  0  0  0  0  0  0  0  0  0  0  0
    7.9426    2.3810    0.0353 C   0  0  0  0  0  0  0  0  0  0  0  0
    6.7209    1.7502    0.2788 C   0  0  0  0  0  0  0  0  0  0  0  0
    5.5169    2.4543    0.1328 C   0  0  0  0  0  0  0  0  0  0  0  0
    3.9878    1.6322    0.4608 S   0  0  0  0  0  6  0  0  0  0  0  0
    4.2267    0.4975    1.4256 O   0  0  0  0  0  0  0  0  0  0  0  0
    3.0193    2.5987    1.0922 O   0  0  0  0  0  0  0  0  0  0  0  0
    3.3642    0.9997   -1.0399 N   0  0  0  0  0  0  0  0  0  0  0  0
    1.8942    0.9399   -1.0636 C   0  0  0  0  0  0  0  0  0  0  0  0
    1.3036    0.0722    0.0707 C   0  0  0  0  0  0  0  0  0  0  0  0
   -0.0836   -0.4287   -0.2846 C   0  0  0  0  0  0  0  0  0  0  0  0
   -1.1821    0.4283   -0.3946 C   0  0  0  0  0  0  0  0  0  0  0  0
   -1.3482    1.7991    0.2203 C   0  0  0  0  0  0  0  0  0  0  0  0
   -1.5207    1.7360    1.7498 C   0  0  0  0  0  0  0  0  0  0  0  0
   -2.7691    0.9630    2.2232 C   0  0  0  0  0  0  0  0  0  0  0  0
   -4.0643    1.5481    1.7104 C   0  0  0  0  0  0  0  0  0  0  0  0
   -4.4107    2.8772    1.9995 C   0  0  0  0  0  0  0  0  0  0  0  0
   -5.6058    3.4175    1.5140 C   0  0  0  0  0  0  0  0  0  0  0  0
   -6.4875    2.6331    0.7465 C   0  0  0  0  0  0  0  0  0  0  0  0
   -7.7357    3.2279    0.2104 C   0  0  0  0  0  0  0  0  0  0  0  0
   -7.8388    4.4815    0.1075 O   0  0  0  0  0  0  0  0  0  0  0  0
   -8.8180    2.4387   -0.1779 O   0  0  0  0  0  0  0  0  0  0  0  0
   -6.1487    1.2955    0.4774 C   0  0  0  0  0  0  0  0  0  0  0  0
   -4.9563    0.7563    0.9681 C   0  0  0  0  0  0  0  0  0  0  0  0
   -2.0918   -0.2346   -1.1838 C   0  0  0  0  0  0  0  0  0  0  0  0
   -3.2897    0.2176   -1.7457 C   0  0  0  0  0  0  0  0  0  0  0  0
   -3.9651   -0.6271   -2.6377 C   0  0  0  0  0  0  0  0  0  0  0  0
   -5.4818   -0.1071   -3.3530 Cl  0  0  0  0  0  0  0  0  0  0  0  0
   -3.4105   -1.8723   -2.9887 C   0  0  0  0  0  0  0  0  0  0  0  0
   -2.1897   -2.2928   -2.4351 C   0  0  0  0  0  0  0  0  0  0  0  0
   -1.5594   -1.4684   -1.4817 C   0  0  0  0  0  0  0  0  0  0  0  0
   -0.3628   -1.6510   -0.8498 N   0  0  0  0  0  0  0  0  0  0  0  0
    0.5090   -2.8612   -0.8567 C   0  0  0  0  0  0  0  0  0  0  0  0
    1.2831   -3.0466    0.4443 C   0  0  0  0  0  0  0  0  0  0  0  0
    2.6323   -3.4524    0.4009 C   0  0  0  0  0  0  0  0  0  0  0  0
    3.3648   -3.6155    1.5823 C   0  0  0  0  0  0  0  0  0  0  0  0
    2.7550   -3.3879    2.8200 C   0  0  0  0  0  0  0  0  0  0  0  0
    1.4100   -3.0099    2.8779 C   0  0  0  0  0  0  0  0  0  0  0  0
    0.6736   -2.8387    1.7006 C   0  0  0  0  0  0  0  0  0  0  0  0
   -0.2478   -4.1631   -1.0684 C   0  0  0  0  0  0  0  0  0  0  0  0
   -1.3843   -4.4826   -0.2977 C   0  0  0  0  0  0  0  0  0  0  0  0
   -2.0347   -5.7069   -0.4698 C   0  0  0  0  0  0  0  0  0  0  0  0
   -1.5537   -6.6320   -1.3999 C   0  0  0  0  0  0  0  0  0  0  0  0
   -0.4224   -6.3330   -2.1632 C   0  0  0  0  0  0  0  0  0  0  0  0
    0.2305   -5.1080   -1.9970 C   0  0  0  0  0  0  0  0  0  0  0  0
    3.1353    6.1379   -0.8447 H   0  0  0  0  0  0  0  0  0  0  0  0
    4.6750    6.4797    0.0304 H   0  0  0  0  0  0  0  0  0  0  0  0
    4.6904    6.0821   -1.7482 H   0  0  0  0  0  0  0  0  0  0  0  0
    6.8340    5.4673   -0.8332 H   0  0  0  0  0  0  0  0  0  0  0  0
    8.9240    4.2054   -0.5499 H   0  0  0  0  0  0  0  0  0  0  0  0
    8.8658    1.8276    0.1529 H   0  0  0  0  0  0  0  0  0  0  0  0
    6.7152    0.7114    0.5870 H   0  0  0  0  0  0  0  0  0  0  0  0
    3.7458    0.0297   -1.1608 H   0  0  0  0  0  0  0  0  0  0  0  0
    1.4909    1.9677   -1.0323 H   0  0  0  0  0  0  0  0  0  0  0  0
    1.5966    0.5065   -2.0455 H   0  0  0  0  0  0  0  0  0  0  0  0
    2.0120   -0.7442    0.2613 H   0  0  0  0  0  0  0  0  0  0  0  0
    1.2502    0.6565    1.0082 H   0  0  0  0  0  0  0  0  0  0  0  0
   -0.4571    2.4194   -0.0063 H   0  0  0  0  0  0  0  0  0  0  0  0
   -2.2137    2.3291   -0.2277 H   0  0  0  0  0  0  0  0  0  0  0  0
   -1.5482    2.7763    2.1390 H   0  0  0  0  0  0  0  0  0  0  0  0
   -0.6292    1.2588    2.2100 H   0  0  0  0  0  0  0  0  0  0  0  0
   -2.6659   -0.1009    1.9154 H   0  0  0  0  0  0  0  0  0  0  0  0
   -2.7954    0.9792    3.3362 H   0  0  0  0  0  0  0  0  0  0  0  0
   -3.7572    3.4961    2.6021 H   0  0  0  0  0  0  0  0  0  0  0  0
   -5.8405    4.4521    1.7416 H   0  0  0  0  0  0  0  0  0  0  0  0
   -8.8504    1.4376   -0.0242 H   0  0  0  0  0  0  0  0  0  0  0  0
   -6.7824    0.6696   -0.1338 H   0  0  0  0  0  0  0  0  0  0  0  0
   -4.7179   -0.2756    0.7466 H   0  0  0  0  0  0  0  0  0  0  0  0
   -3.6865    1.1975   -1.5191 H   0  0  0  0  0  0  0  0  0  0  0  0
   -3.9122   -2.5041   -3.7096 H   0  0  0  0  0  0  0  0  0  0  0  0
   -1.7577   -3.2114   -2.8001 H   0  0  0  0  0  0  0  0  0  0  0  0
    1.2334   -2.7302   -1.6916 H   0  0  0  0  0  0  0  0  0  0  0  0
    3.1229   -3.6274   -0.5492 H   0  0  0  0  0  0  0  0  0  0  0  0
    4.4081   -3.9145    1.5404 H   0  0  0  0  0  0  0  0  0  0  0  0
    3.3248   -3.5051    3.7342 H   0  0  0  0  0  0  0  0  0  0  0  0
    0.9354   -2.8440    3.8376 H   0  0  0  0  0  0  0  0  0  0  0  0
   -0.3595   -2.5223    1.7709 H   0  0  0  0  0  0  0  0  0  0  0  0
   -1.7837   -3.7785    0.4170 H   0  0  0  0  0  0  0  0  0  0  0  0
   -2.9129   -5.9357    0.1191 H   0  0  0  0  0  0  0  0  0  0  0  0
   -2.0545   -7.5816   -1.5260 H   0  0  0  0  0  0  0  0  0  0  0  0
   -0.0463   -7.0513   -2.8823 H   0  0  0  0  0  0  0  0  0  0  0  0
    1.1128   -4.8973   -2.5900 H   0  0  0  0  0  0  0  0  0  0  0  0
  1  2  1  0
  2  3  1  0
  3  4  2  0
  4  5  1  0
  5  6  2  0
  6  7  1  0
  7  8  2  0
  8  9  1  0
  9 10  2  0
  9 11  2  0
  9 12  1  0
 12 13  1  0
 13 14  1  0
 14 15  1  0
 15 16  2  0
 16 17  1  0
 17 18  1  0
 18 19  1  0
 19 20  1  0
 20 21  2  0
 21 22  1  0
 22 23  2  0
 23 24  1  0
 24 25  2  0
 24 26  1  0
 23 27  1  0
 27 28  2  0
 16 29  1  0
 29 30  2  0
 30 31  1  0
 31 32  1  0
 31 33  2  0
 33 34  1  0
 34 35  2  0
 35 36  1  0
 36 37  1  0
 37 38  1  0
 38 39  2  0
 39 40  1  0
 40 41  2  0
 41 42  1  0
 42 43  2  0
 37 44  1  0
 44 45  2  0
 45 46  1  0
 46 47  2  0
 47 48  1  0
 48 49  2  0
  8  3  1  0
 36 15  1  0
 43 38  1  0
 49 44  1  0
 28 20  1  0
 35 29  1  0
  1 50  1  0
  1 51  1  0
  1 52  1  0
  4 53  1  0
  5 54  1  0
  6 55  1  0
  7 56  1  0
 12 57  1  0
 13 58  1  0
 13 59  1  0
 14 60  1  0
 14 61  1  0
 17 62  1  0
 17 63  1  0
 18 64  1  0
 18 65  1  0
 19 66  1  0
 19 67  1  0
 21 68  1  0
 22 69  1  0
 26 70  1  0
 27 71  1  0
 28 72  1  0
 30 73  1  0
 33 74  1  0
 34 75  1  0
 37 76  1  0
 39 77  1  0
 40 78  1  0
 41 79  1  0
 42 80  1  0
 43 81  1  0
 45 82  1  0
 46 83  1  0
 47 84  1  0
 48 85  1  0
 49 86  1  0
M  END
$$$$

     RDKit          3D

 62 65  0  0  0  0  0  0  0  0999 V2000
    1.3050    1.5685   -4.7987 C   0  0  0  0  0  0  0  0  0  0  0  0
    1.9683    2.7586   -4.1166 C   0  0  0  0  0  0  0  0  0  0  0  0
    1.5078    2.8833   -2.7349 N   0  0  0  0  0  0  0  0  0  0  0  0
    1.8852    1.9455   -1.7100 C   0  0  0  0  0  0  0  0  0  0  0  0
    2.9563    1.1299   -1.9237 N   0  0  0  0  0  0  0  0  0  0  0  0
    3.4116    0.2582   -0.9886 C   0  0  0  0  0  0  0  0  0  0  0  0
    4.5031   -0.5680   -1.2727 C   0  0  0  0  0  0  0  0  0  0  0  0
    4.9726   -1.4661   -0.3090 C   0  0  0  0  0  0  0  0  0  0  0  0
    6.0194   -2.2758   -0.6034 F   0  0  0  0  0  0  0  0  0  0  0  0
    4.3601   -1.5439    0.9507 C   0  0  0  0  0  0  0  0  0  0  0  0
    4.8628   -2.4667    1.8814 O   0  0  0  0  0  0  0  0  0  0  0  0
    4.3405   -2.6567    3.1929 C   0  0  0  0  0  0  0  0  0  0  0  0
    3.2644   -0.7072    1.2370 C   0  0  0  0  0  0  0  0  0  0  0  0
    2.7879    0.1907    0.2690 C   0  0  0  0  0  0  0  0  0  0  0  0
    1.6869    1.0142    0.5211 C   0  0  0  0  0  0  0  0  0  0  0  0
    1.1861    1.8712   -0.4794 C   0  0  0  0  0  0  0  0  0  0  0  0
   -0.0626    2.7028   -0.2240 C   0  0  0  0  0  0  0  0  0  0  0  0
   -1.0597    2.0217    0.7088 C   0  0  0  0  0  0  0  0  0  0  0  0
   -1.2961    2.5633    1.9861 C   0  0  0  0  0  0  0  0  0  0  0  0
   -0.7110    3.6188    2.3517 O   0  0  0  0  0  0  0  0  0  0  0  0
   -2.1501    1.9546    2.8478 N   0  0  0  0  0  0  0  0  0  0  0  0
   -2.8190    0.8092    2.5373 C   0  0  0  0  0  0  0  0  0  0  0  0
   -3.7226    0.2084    3.5961 C   0  0  0  0  0  0  0  0  0  0  0  0
   -3.0037   -0.8980    4.3647 C   0  0  0  0  0  0  0  0  0  0  0  0
   -2.6132    0.2030    1.2701 C   0  0  0  0  0  0  0  0  0  0  0  0
   -3.2471   -1.0065    0.9096 C   0  0  0  0  0  0  0  0  0  0  0  0
   -3.0217   -1.6023   -0.3422 C   0  0  0  0  0  0  0  0  0  0  0  0
   -3.6239   -2.8171   -0.7115 O   0  0  0  0  0  0  0  0  0  0  0  0
   -4.4960   -3.5767    0.1188 C   0  0  0  0  0  0  0  0  0  0  0  0
   -2.1705   -0.9834   -1.2596 C   0  0  0  0  0  0  0  0  0  0  0  0
   -1.9649   -1.6099   -2.4998 O   0  0  0  0  0  0  0  0  0  0  0  0
   -1.1016   -1.1207   -3.5208 C   0  0  0  0  0  0  0  0  0  0  0  0
   -1.5446    0.2277   -0.9221 C   0  0  0  0  0  0  0  0  0  0  0  0
   -1.7361    0.8259    0.3429 C   0  0  0  0  0  0  0  0  0  0  0  0
    1.6005    0.6203   -4.3008 H   0  0  0  0  0  0  0  0  0  0  0  0
    0.2015    1.6733   -4.7546 H   0  0  0  0  0  0  0  0  0  0  0  0
    1.6193    1.5244   -5.8607 H   0  0  0  0  0  0  0  0  0  0  0  0
    3.0732    2.6461   -4.1417 H   0  0  0  0  0  0  0  0  0  0  0  0
    1.7054    3.6816   -4.6766 H   0  0  0  0  0  0  0  0  0  0  0  0
    0.9557    3.7359   -2.4912 H   0  0  0  0  0  0  0  0  0  0  0  0
    4.9833   -0.5202   -2.2431 H   0  0  0  0  0  0  0  0  0  0  0  0
    4.4168   -1.7131    3.7756 H   0  0  0  0  0  0  0  0  0  0  0  0
    3.2817   -2.9898    3.1377 H   0  0  0  0  0  0  0  0  0  0  0  0
    4.9314   -3.4417    3.7093 H   0  0  0  0  0  0  0  0  0  0  0  0
    2.7728   -0.7581    2.2000 H   0  0  0  0  0  0  0  0  0  0  0  0
    1.2055    0.9656    1.4894 H   0  0  0  0  0  0  0  0  0  0  0  0
   -0.6045    2.9202   -1.1676 H   0  0  0  0  0  0  0  0  0  0  0  0
    0.2687    3.6854    0.1685 H   0  0  0  0  0  0  0  0  0  0  0  0
   -2.2876    2.3883    3.7894 H   0  0  0  0  0  0  0  0  0  0  0  0
   -4.6673   -0.1705    3.1532 H   0  0  0  0  0  0  0  0  0  0  0  0
   -4.0315    0.9930    4.3206 H   0  0  0  0  0  0  0  0  0  0  0  0
   -2.0901   -0.4952    4.8560 H   0  0  0  0  0  0  0  0  0  0  0  0
   -3.6801   -1.3103    5.1412 H   0  0  0  0  0  0  0  0  0  0  0  0
   -2.7068   -1.7222    3.6826 H   0  0  0  0  0  0  0  0  0  0  0  0
   -3.9071   -1.5057    1.5980 H   0  0  0  0  0  0  0  0  0  0  0  0
   -3.9728   -3.8718    1.0533 H   0  0  0  0  0  0  0  0  0  0  0  0
   -4.7998   -4.4956   -0.4220 H   0  0  0  0  0  0  0  0  0  0  0  0
   -5.4054   -2.9859    0.3567 H   0  0  0  0  0  0  0  0  0  0  0  0
   -1.1165   -1.8272   -4.3753 H   0  0  0  0  0  0  0  0  0  0  0  0
   -0.0608   -1.0463   -3.1390 H   0  0  0  0  0  0  0  0  0  0  0  0
   -1.4545   -0.1286   -3.8744 H   0  0  0  0  0  0  0  0  0  0  0  0
   -0.9044    0.6916   -1.6537 H   0  0  0  0  0  0  0  0  0  0  0  0
  1  2  1  0
  2  3  1  0
  3  4  1  0
  4  5  2  0
  5  6  1  0
  6  7  2  0
  7  8  1  0
  8  9  1  0
  8 10  2  0
 10 11  1  0
 11 12  1  0
 10 13  1  0
 13 14  2  0
 14 15  1  0
 15 16  2  0
 16 17  1  0
 17 18  1  0
 18 19  1  0
 19 20  2  0
 19 21  1  0
 21 22  1  0
 22 23  1  0
 23 24  1  0
 22 25  2  0
 25 26  1  0
 26 27  2  0
 27 28  1  0
 28 29  1  0
 27 30  1  0
 30 31  1  0
 31 32  1  0
 30 33  2  0
 33 34  1  0
 16  4  1  0
 34 18  2  0
 14  6  1  0
 34 25  1  0
  1 35  1  0
  1 36  1  0
  1 37  1  0
  2 38  1  0
  2 39  1  0
  3 40  1  0
  7 41  1  0
 12 42  1  0
 12 43  1  0
 12 44  1  0
 13 45  1  0
 15 46  1  0
 17 47  1  0
 17 48  1  0
 21 49  1  0
 23 50  1  0
 23 51  1  0
 24 52  1  0
 24 53  1  0
 24 54  1  0
 26 55  1  0
 29 56  1  0
 29 57  1  0
 29 58  1  0
 32 59  1  0
 32 60  1  0
 32 61  1  0
 33 62  1  0
M  END
$$$$

     RDKit          3D

 60 63  0  0  0  0  0  0  0  0999 V2000
    9.9978   -0.5848    3.0631 C   0  0  0  0  0  0  0  0  0  0  0  0
    8.7361   -0.9291    2.8107 C   0  0  0  0  0  0  0  0  0  0  0  0
    7.8832   -0.1814    1.8678 C   0  0  0  0  0  0  0  0  0  0  0  0
    8.3454    0.8156    1.2476 O   0  0  0  0  0  0  0  0  0  0  0  0
    6.5366   -0.6224    1.6323 N   0  0  0  0  0  0  0  0  0  0  0  0
    5.5540    0.1397    0.9097 C   0  0  0  0  0  0  0  0  0  0  0  0
    5.4993    1.5407    1.0049 C   0  0  0  0  0  0  0  0  0  0  0  0
    4.5158    2.2550    0.3183 C   0  0  0  0  0  0  0  0  0  0  0  0
    3.5707    1.5821   -0.4585 C   0  0  0  0  0  0  0  0  0  0  0  0
    3.5946    0.1795   -0.5517 C   0  0  0  0  0  0  0  0  0  0  0  0
    2.5849   -0.5373   -1.3708 C   0  0  0  0  0  0  0  0  0  0  0  0
    2.9565   -1.6563   -2.1642 C   0  0  0  0  0  0  0  0  0  0  0  0
    2.0270   -2.3258   -2.9082 N   0  0  0  0  0  0  0  0  0  0  0  0
    0.7400   -1.9030   -2.8970 C   0  0  0  0  0  0  0  0  0  0  0  0
   -0.2835   -2.4819   -3.5429 N   0  0  0  0  0  0  0  0  0  0  0  0
   -1.3768   -1.7550   -3.2182 C   0  0  0  0  0  0  0  0  0  0  0  0
   -1.0334   -0.7028   -2.3675 C   0  0  0  0  0  0  0  0  0  0  0  0
   -1.9599    0.3040   -1.8064 C   0  0  0  0  0  0  0  0  0  0  0  0
   -1.5715    1.6477   -1.6802 C   0  0  0  0  0  0  0  0  0  0  0  0
   -2.4580    2.5913   -1.1562 C   0  0  0  0  0  0  0  0  0  0  0  0
   -3.7395    2.2057   -0.7578 C   0  0  0  0  0  0  0  0  0  0  0  0
   -4.1458    0.8707   -0.8853 C   0  0  0  0  0  0  0  0  0  0  0  0
   -5.7664    0.3818   -0.3770 S   0  0  0  0  0  6  0  0  0  0  0  0
   -6.7128    1.5177   -0.6507 O   0  0  0  0  0  0  0  0  0  0  0  0
   -6.2160   -0.7877   -1.2073 O   0  0  0  0  0  0  0  0  0  0  0  0
   -5.8249   -0.0508    1.3265 N   0  0  0  0  0  0  0  0  0  0  0  0
   -4.7204   -0.9624    1.6948 C   0  0  0  0  0  0  0  0  0  0  0  0
   -4.9574   -2.3751    1.1639 C   0  0  0  0  0  0  0  0  0  0  0  0
   -5.8265    1.1653    2.1697 C   0  0  0  0  0  0  0  0  0  0  0  0
   -7.2581    1.5456    2.5320 C   0  0  0  0  0  0  0  0  0  0  0  0
   -3.2578   -0.0729   -1.4228 C   0  0  0  0  0  0  0  0  0  0  0  0
    0.3329   -0.8220   -2.1679 C   0  0  0  0  0  0  0  0  0  0  0  0
    1.2342   -0.1204   -1.3699 C   0  0  0  0  0  0  0  0  0  0  0  0
    4.5881   -0.5330    0.1452 C   0  0  0  0  0  0  0  0  0  0  0  0
   10.4601    0.2672    2.5810 H   0  0  0  0  0  0  0  0  0  0  0  0
   10.5843   -1.1635    3.7650 H   0  0  0  0  0  0  0  0  0  0  0  0
    8.3205   -1.7888    3.3213 H   0  0  0  0  0  0  0  0  0  0  0  0
    6.2814   -1.5906    1.9326 H   0  0  0  0  0  0  0  0  0  0  0  0
    6.1973    2.0823    1.6292 H   0  0  0  0  0  0  0  0  0  0  0  0
    4.4824    3.3343    0.3927 H   0  0  0  0  0  0  0  0  0  0  0  0
    2.8273    2.1592   -0.9941 H   0  0  0  0  0  0  0  0  0  0  0  0
    3.9856   -1.9891   -2.1949 H   0  0  0  0  0  0  0  0  0  0  0  0
   -0.2480   -3.3242   -4.1587 H   0  0  0  0  0  0  0  0  0  0  0  0
   -2.3712   -1.9699   -3.5875 H   0  0  0  0  0  0  0  0  0  0  0  0
   -0.5961    1.9759   -2.0144 H   0  0  0  0  0  0  0  0  0  0  0  0
   -2.1538    3.6261   -1.0667 H   0  0  0  0  0  0  0  0  0  0  0  0
   -4.4153    2.9513   -0.3599 H   0  0  0  0  0  0  0  0  0  0  0  0
   -3.7385   -0.5750    1.3495 H   0  0  0  0  0  0  0  0  0  0  0  0
   -4.6623   -1.0641    2.8015 H   0  0  0  0  0  0  0  0  0  0  0  0
   -4.7997   -2.4238    0.0691 H   0  0  0  0  0  0  0  0  0  0  0  0
   -4.2382   -3.0749    1.6391 H   0  0  0  0  0  0  0  0  0  0  0  0
   -5.9891   -2.7080    1.4050 H   0  0  0  0  0  0  0  0  0  0  0  0
   -5.2839    1.0120    3.1290 H   0  0  0  0  0  0  0  0  0  0  0  0
   -5.3272    2.0209    1.6679 H   0  0  0  0  0  0  0  0  0  0  0  0
   -7.8482    1.7812    1.6230 H   0  0  0  0  0  0  0  0  0  0  0  0
   -7.7468    0.7073    3.0727 H   0  0  0  0  0  0  0  0  0  0  0  0
   -7.2515    2.4399    3.1907 H   0  0  0  0  0  0  0  0  0  0  0  0
   -3.5698   -1.1038   -1.5251 H   0  0  0  0  0  0  0  0  0  0  0  0
    0.9021    0.6946   -0.7415 H   0  0  0  0  0  0  0  0  0  0  0  0
    4.6102   -1.6151    0.1034 H   0  0  0  0  0  0  0  0  0  0  0  0
  1  2  2  3
  2  3  1  0
  3  4  2  0
  3  5  1  0
  5  6  1  0
  6  7  2  0
  7  8  1  0
  8  9  2  0
  9 10  1  0
 10 11  1  0
 11 12  2  0
 12 13  1  0
 13 14  2  0
 14 15  1  0
 15 16  1  0
 16 17  2  0
 17 18  1  0
 18 19  2  0
 19 20  1  0
 20 21  2  0
 21 22  1  0
 22 23  1  0
 23 24  2  0
 23 25  2  0
 23 26  1  0
 26 27  1  0
 27 28  1  0
 26 29  1  0
 29 30  1  0
 22 31  2  0
 17 32  1  0
 32 33  2  0
 10 34  2  0
 34  6  1  0
 33 11  1  0
 32 14  1  0
 31 18  1  0
  1 35  1  0
  1 36  1  0
  2 37  1  0
  5 38  1  0
  7 39  1  0
  8 40  1  0
  9 41  1  0
 12 42  1  0
 15 43  1  0
 16 44  1  0
 19 45  1  0
 20 46  1  0
 21 47  1  0
 27 48  1  0
 27 49  1  0
 28 50  1  0
 28 51  1  0
 28 52  1  0
 29 53  1  0
 29 54  1  0
 30 55  1  0
 30 56  1  0
 30 57  1  0
 31 58  1  0
 33 59  1  0
 34 60  1  0
M  END
$$$$

     RDKit          3D

 66 69  0  0  0  0  0  0  0  0999 V2000
    0.4997   -3.2421   -2.3844 C   0  0  0  0  0  0  0  0  0  0  0  0
    1.6036   -2.2584   -1.9984 C   0  0  0  0  0  0  0  0  0  0  0  0
    1.4203   -1.7722   -0.6272 N   0  0  0  0  0  0  0  0  0  0  0  0
    2.3087   -0.7900   -0.0633 C   0  0  0  0  0  0  0  0  0  0  0  0
    3.5065   -0.5496   -0.6716 N   0  0  0  0  0  0  0  0  0  0  0  0
    4.4008    0.3552   -0.1944 C   0  0  0  0  0  0  0  0  0  0  0  0
    5.6162    0.5605   -0.8584 C   0  0  0  0  0  0  0  0  0  0  0  0
    6.5355    1.4929   -0.3660 C   0  0  0  0  0  0  0  0  0  0  0  0
    6.2451    2.2328    0.7998 C   0  0  0  0  0  0  0  0  0  0  0  0
    7.1298    3.1875    1.3250 O   0  0  0  0  0  0  0  0  0  0  0  0
    8.3813    3.5305    0.7383 C   0  0  0  0  0  0  0  0  0  0  0  0
    5.0298    2.0188    1.4654 C   0  0  0  0  0  0  0  0  0  0  0  0
    4.1053    1.0846    0.9737 C   0  0  0  0  0  0  0  0  0  0  0  0
    2.8830    0.8655    1.6193 C   0  0  0  0  0  0  0  0  0  0  0  0
    1.9608   -0.0622    1.1037 C   0  0  0  0  0  0  0  0  0  0  0  0
    0.6282   -0.2414    1.8080 C   0  0  0  0  0  0  0  0  0  0  0  0
   -0.5832    0.0844    0.9246 C   0  0  0  0  0  0  0  0  0  0  0  0
   -0.5524    1.2237    0.0922 C   0  0  0  0  0  0  0  0  0  0  0  0
    0.4123    2.0360    0.1530 O   0  0  0  0  0  0  0  0  0  0  0  0
   -1.5557    1.4685   -0.7887 N   0  0  0  0  0  0  0  0  0  0  0  0
   -2.6774    0.6928   -0.8685 C   0  0  0  0  0  0  0  0  0  0  0  0
   -3.7926    1.0680   -1.8427 C   0  0  0  0  0  0  0  0  0  0  0  0
   -3.6928    2.4489   -2.3164 N   0  0  0  0  0  0  0  0  0  0  0  0
   -3.9350    3.5768   -1.4593 C   0  0  0  0  0  0  0  0  0  0  0  0
   -3.8321    4.9660   -2.0022 C   0  0  0  0  0  0  0  0  0  0  0  0
   -4.2520    3.4046   -0.2489 O   0  0  0  0  0  0  0  0  0  0  0  0
   -2.7842   -0.4546   -0.0389 C   0  0  0  0  0  0  0  0  0  0  0  0
   -3.8910   -1.3316   -0.1262 C   0  0  0  0  0  0  0  0  0  0  0  0
   -4.0440   -2.4052    0.7654 C   0  0  0  0  0  0  0  0  0  0  0  0
   -5.1471   -3.2786    0.7076 O   0  0  0  0  0  0  0  0  0  0  0  0
   -6.2346   -3.1561   -0.2032 C   0  0  0  0  0  0  0  0  0  0  0  0
   -3.0855   -2.6166    1.7582 C   0  0  0  0  0  0  0  0  0  0  0  0
   -3.2915   -3.6759    2.6593 O   0  0  0  0  0  0  0  0  0  0  0  0
   -2.3907   -4.0461    3.6986 C   0  0  0  0  0  0  0  0  0  0  0  0
   -1.9603   -1.7754    1.8349 C   0  0  0  0  0  0  0  0  0  0  0  0
   -1.7585   -0.7244    0.9091 C   0  0  0  0  0  0  0  0  0  0  0  0
    0.5271   -4.1313   -1.7160 H   0  0  0  0  0  0  0  0  0  0  0  0
    0.6523   -3.5794   -3.4340 H   0  0  0  0  0  0  0  0  0  0  0  0
   -0.4969   -2.7505   -2.3047 H   0  0  0  0  0  0  0  0  0  0  0  0
    2.5920   -2.7638   -2.0863 H   0  0  0  0  0  0  0  0  0  0  0  0
    1.5787   -1.3963   -2.7028 H   0  0  0  0  0  0  0  0  0  0  0  0
    0.6360   -2.1564   -0.0505 H   0  0  0  0  0  0  0  0  0  0  0  0
    5.8526    0.0006   -1.7572 H   0  0  0  0  0  0  0  0  0  0  0  0
    7.4669    1.6315   -0.9007 H   0  0  0  0  0  0  0  0  0  0  0  0
    8.8608    4.3260    1.3465 H   0  0  0  0  0  0  0  0  0  0  0  0
    9.0510    2.6414    0.7182 H   0  0  0  0  0  0  0  0  0  0  0  0
    8.2284    3.9170   -0.2924 H   0  0  0  0  0  0  0  0  0  0  0  0
    4.8070    2.5881    2.3622 H   0  0  0  0  0  0  0  0  0  0  0  0
    2.6430    1.4271    2.5163 H   0  0  0  0  0  0  0  0  0  0  0  0
    0.6362   -1.2895    2.1643 H   0  0  0  0  0  0  0  0  0  0  0  0
    0.5692    0.4039    2.7148 H   0  0  0  0  0  0  0  0  0  0  0  0
   -1.4425    2.2953   -1.4167 H   0  0  0  0  0  0  0  0  0  0  0  0
   -3.7439    0.3790   -2.7150 H   0  0  0  0  0  0  0  0  0  0  0  0
   -4.7897    0.9517   -1.3625 H   0  0  0  0  0  0  0  0  0  0  0  0
   -3.4537    2.6204   -3.3182 H   0  0  0  0  0  0  0  0  0  0  0  0
   -3.7681    5.6994   -1.1703 H   0  0  0  0  0  0  0  0  0  0  0  0
   -4.7244    5.1880   -2.6282 H   0  0  0  0  0  0  0  0  0  0  0  0
   -2.9101    5.0607   -2.6202 H   0  0  0  0  0  0  0  0  0  0  0  0
   -4.6395   -1.1949   -0.8901 H   0  0  0  0  0  0  0  0  0  0  0  0
   -6.9766   -3.9601    0.0010 H   0  0  0  0  0  0  0  0  0  0  0  0
   -5.8713   -3.2669   -1.2485 H   0  0  0  0  0  0  0  0  0  0  0  0
   -6.7327   -2.1726   -0.0685 H   0  0  0  0  0  0  0  0  0  0  0  0
   -2.2589   -3.2041    4.4161 H   0  0  0  0  0  0  0  0  0  0  0  0
   -2.8080   -4.9163    4.2482 H   0  0  0  0  0  0  0  0  0  0  0  0
   -1.4100   -4.3403    3.2625 H   0  0  0  0  0  0  0  0  0  0  0  0
   -1.2812   -1.9250    2.6552 H   0  0  0  0  0  0  0  0  0  0  0  0
  1  2  1  0
  2  3  1  0
  3  4  1  0
  4  5  2  0
  5  6  1  0
  6  7  2  0
  7  8  1  0
  8  9  2  0
  9 10  1  0
 10 11  1  0
  9 12  1  0
 12 13  2  0
 13 14  1  0
 14 15  2  0
 15 16  1  0
 16 17  1  0
 17 18  1  0
 18 19  2  0
 18 20  1  0
 20 21  1  0
 21 22  1  0
 22 23  1  0
 23 24  1  0
 24 25  1  0
 24 26  2  0
 21 27  2  0
 27 28  1  0
 28 29  2  0
 29 30  1  0
 30 31  1  0
 29 32  1  0
 32 33  1  0
 33 34  1  0
 32 35  2  0
 35 36  1  0
 15  4  1  0
 36 17  2  0
 13  6  1  0
 36 27  1  0
  1 37  1  0
  1 38  1  0
  1 39  1  0
  2 40  1  0
  2 41  1  0
  3 42  1  0
  7 43  1  0
  8 44  1  0
 11 45  1  0
 11 46  1  0
 11 47  1  0
 12 48  1  0
 14 49  1  0
 16 50  1  0
 16 51  1  0
 20 52  1  0
 22 53  1  0
 22 54  1  0
 23 55  1  0
 25 56  1  0
 25 57  1  0
 25 58  1  0
 28 59  1  0
 31 60  1  0
 31 61  1  0
 31 62  1  0
 34 63  1  0
 34 64  1  0
 34 65  1  0
 35 66  1  0
M  END
$$$$

     RDKit          3D

 48 52  0  0  0  0  0  0  0  0999 V2000
   -3.1360   -3.1221   -2.2213 C   0  0  0  0  0  0  0  0  0  0  0  0
   -3.6512   -1.8765   -1.6616 N   0  0  0  0  0  0  0  0  0  0  0  0
   -4.9306   -1.5415   -1.7028 N   0  0  0  0  0  0  0  0  0  0  0  0
   -5.0799   -0.3847   -1.0290 C   0  0  0  0  0  0  0  0  0  0  0  0
   -3.8527    0.0247   -0.5315 C   0  0  0  0  0  0  0  0  0  0  0  0
   -3.5514    1.2522    0.2386 C   0  0  0  0  0  0  0  0  0  0  0  0
   -2.3527    1.6010    0.4099 O   0  0  0  0  0  0  0  0  0  0  0  0
   -4.5876    2.0695    0.7897 N   0  0  0  0  0  0  0  0  0  0  0  0
   -4.6405    3.2805    1.6281 C   0  0  0  0  0  0  0  0  0  0  0  0
   -6.1276    3.3604    1.7051 C   0  0  0  0  0  0  0  0  0  0  0  0
   -6.0598    2.1369    0.8536 C   0  0  0  0  0  0  0  0  0  0  0  0
   -2.9616   -0.9492   -0.9624 C   0  0  0  0  0  0  0  0  0  0  0  0
   -1.5319   -1.0435   -0.6171 C   0  0  0  0  0  0  0  0  0  0  0  0
   -1.1945   -1.0171    0.5970 O   0  0  0  0  0  0  0  0  0  0  0  0
   -0.5440   -1.1879   -1.6499 N   0  0  0  0  0  0  0  0  0  0  0  0
    0.8701   -1.2691   -1.4083 C   0  0  0  0  0  0  0  0  0  0  0  0
    1.6696   -2.0983   -2.2287 C   0  0  0  0  0  0  0  0  0  0  0  0
    3.0582   -2.1811   -2.0298 C   0  0  0  0  0  0  0  0  0  0  0  0
    3.6060   -1.4081   -1.0116 C   0  0  0  0  0  0  0  0  0  0  0  0
    4.9035   -1.3359   -0.6654 N   0  0  0  0  0  0  0  0  0  0  0  0
    4.8593   -0.4345    0.3536 C   0  0  0  0  0  0  0  0  0  0  0  0
    6.0538    0.0066    1.1041 C   0  0  0  0  0  0  0  0  0  0  0  0
    5.9430    0.9438    2.1444 C   0  0  0  0  0  0  0  0  0  0  0  0
    7.0795    1.3484    2.8463 C   0  0  0  0  0  0  0  0  0  0  0  0
    8.3210    0.8145    2.5031 C   0  0  0  0  0  0  0  0  0  0  0  0
    8.4171   -0.0904    1.4936 N   0  0  0  0  0  0  0  0  0  0  0  0
    7.3263   -0.5025    0.7946 C   0  0  0  0  0  0  0  0  0  0  0  0
    3.6054    0.0157    0.6102 N   0  0  0  0  0  0  0  0  0  0  0  0
    2.8412   -0.6130   -0.2592 N   0  0  0  0  0  0  0  0  0  0  0  0
    1.4984   -0.4960   -0.4079 C   0  0  0  0  0  0  0  0  0  0  0  0
   -3.9728   -3.7450   -2.6023 H   0  0  0  0  0  0  0  0  0  0  0  0
   -2.4526   -2.9065   -3.0666 H   0  0  0  0  0  0  0  0  0  0  0  0
   -2.5955   -3.6940   -1.4379 H   0  0  0  0  0  0  0  0  0  0  0  0
   -6.0273    0.1182   -0.9218 H   0  0  0  0  0  0  0  0  0  0  0  0
   -4.1697    3.0982    2.6199 H   0  0  0  0  0  0  0  0  0  0  0  0
   -4.1909    4.1484    1.0975 H   0  0  0  0  0  0  0  0  0  0  0  0
   -6.5259    3.1650    2.7252 H   0  0  0  0  0  0  0  0  0  0  0  0
   -6.5457    4.2418    1.1738 H   0  0  0  0  0  0  0  0  0  0  0  0
   -6.4971    2.3063   -0.1559 H   0  0  0  0  0  0  0  0  0  0  0  0
   -6.4782    1.2391    1.3612 H   0  0  0  0  0  0  0  0  0  0  0  0
   -0.8716   -1.2962   -2.6354 H   0  0  0  0  0  0  0  0  0  0  0  0
    1.2115   -2.6854   -3.0143 H   0  0  0  0  0  0  0  0  0  0  0  0
    3.6771   -2.8181   -2.6487 H   0  0  0  0  0  0  0  0  0  0  0  0
    4.9818    1.3635    2.4136 H   0  0  0  0  0  0  0  0  0  0  0  0
    6.9985    2.0702    3.6486 H   0  0  0  0  0  0  0  0  0  0  0  0
    9.2096    1.1201    3.0383 H   0  0  0  0  0  0  0  0  0  0  0  0
    7.4549   -1.2253   -0.0007 H   0  0  0  0  0  0  0  0  0  0  0  0
    0.9436    0.1970    0.2096 H   0  0  0  0  0  0  0  0  0  0  0  0
  1  2  1  0
  2  3  1  0
  3  4  2  0
  4  5  1  0
  5  6  1  0
  6  7  2  0
  6  8  1  0
  8  9  1  0
  9 10  1  0
 10 11  1  0
  5 12  2  0
 12 13  1  0
 13 14  2  0
 13 15  1  0
 15 16  1  0
 16 17  1  0
 17 18  2  0
 18 19  1  0
 19 20  2  0
 20 21  1  0
 21 22  1  0
 22 23  2  0
 23 24  1  0
 24 25  2  0
 25 26  1  0
 26 27  2  0
 21 28  2  0
 28 29  1  0
 29 30  1  0
 12  2  1  0
 30 16  2  0
 11  8  1  0
 29 19  1  0
 27 22  1  0
  1 31  1  0
  1 32  1  0
  1 33  1  0
  4 34  1  0
  9 35  1  0
  9 36  1  0
 10 37  1  0
 10 38  1  0
 11 39  1  0
 11 40  1  0
 15 41  1  0
 17 42  1  0
 18 43  1  0
 23 44  1  0
 24 45  1  0
 25 46  1  0
 27 47  1  0
 30 48  1  0
M  END
$$$$

     RDKit          3D

 51 55  0  0  0  0  0  0  0  0999 V2000
   -3.4658   -1.6679    0.5038 C   0  0  0  0  0  0  0  0  0  0  0  0
   -3.9908   -0.4585   -0.1392 N   0  0  0  0  0  0  0  0  0  0  0  0
   -3.1250    0.6623   -0.4336 C   0  0  0  0  0  0  0  0  0  0  0  0
   -3.6229    1.7838   -0.7256 O   0  0  0  0  0  0  0  0  0  0  0  0
   -1.6542    0.5419   -0.3973 C   0  0  0  0  0  0  0  0  0  0  0  0
   -0.9953   -0.4270   -1.1682 C   0  0  0  0  0  0  0  0  0  0  0  0
    0.3991   -0.5198   -1.1418 C   0  0  0  0  0  0  0  0  0  0  0  0
    1.1562    0.3597   -0.3594 C   0  0  0  0  0  0  0  0  0  0  0  0
    2.5520    0.2233   -0.3651 O   0  0  0  0  0  0  0  0  0  0  0  0
    3.4453    1.0477    0.3789 C   0  0  0  0  0  0  0  0  0  0  0  0
    4.8549    0.6172    0.1185 C   0  0  0  0  0  0  0  0  0  0  0  0
    5.4005    0.7132   -1.1698 C   0  0  0  0  0  0  0  0  0  0  0  0
    6.7177    0.3070   -1.3934 C   0  0  0  0  0  0  0  0  0  0  0  0
    7.4827   -0.1908   -0.3317 C   0  0  0  0  0  0  0  0  0  0  0  0
    8.8093   -0.6067   -0.5202 C   0  0  0  0  0  0  0  0  0  0  0  0
    9.5474   -1.0977    0.5619 C   0  0  0  0  0  0  0  0  0  0  0  0
    8.9673   -1.1761    1.8324 C   0  0  0  0  0  0  0  0  0  0  0  0
    7.6453   -0.7642    2.0289 C   0  0  0  0  0  0  0  0  0  0  0  0
    6.8987   -0.2713    0.9525 C   0  0  0  0  0  0  0  0  0  0  0  0
    5.6130    0.1312    1.1398 N   0  0  0  0  0  0  0  0  0  0  0  0
    0.4963    1.3470    0.3972 C   0  0  0  0  0  0  0  0  0  0  0  0
   -0.8985    1.4401    0.3701 C   0  0  0  0  0  0  0  0  0  0  0  0
   -5.4049   -0.3725   -0.3927 C   0  0  0  0  0  0  0  0  0  0  0  0
   -6.0408   -1.3371   -1.2078 C   0  0  0  0  0  0  0  0  0  0  0  0
   -7.4226   -1.2703   -1.4487 C   0  0  0  0  0  0  0  0  0  0  0  0
   -8.1334   -0.2318   -0.8530 C   0  0  0  0  0  0  0  0  0  0  0  0
   -9.4585   -0.0117   -0.9687 N   0  0  0  0  0  0  0  0  0  0  0  0
   -9.6583    1.0947   -0.2113 C   0  0  0  0  0  0  0  0  0  0  0  0
   -8.4616    1.5180    0.3431 C   0  0  0  0  0  0  0  0  0  0  0  0
   -7.5140    0.6688   -0.0748 N   0  0  0  0  0  0  0  0  0  0  0  0
   -6.1833    0.6479    0.1887 C   0  0  0  0  0  0  0  0  0  0  0  0
   -2.8535   -1.3917    1.3883 H   0  0  0  0  0  0  0  0  0  0  0  0
   -4.2914   -2.3250    0.8535 H   0  0  0  0  0  0  0  0  0  0  0  0
   -2.8498   -2.2475   -0.2120 H   0  0  0  0  0  0  0  0  0  0  0  0
   -1.5572   -1.0976   -1.8059 H   0  0  0  0  0  0  0  0  0  0  0  0
    0.8953   -1.2744   -1.7389 H   0  0  0  0  0  0  0  0  0  0  0  0
    3.3266    2.1096    0.0726 H   0  0  0  0  0  0  0  0  0  0  0  0
    3.2176    0.9563    1.4635 H   0  0  0  0  0  0  0  0  0  0  0  0
    4.8097    1.0988   -1.9916 H   0  0  0  0  0  0  0  0  0  0  0  0
    7.1361    0.3821   -2.3900 H   0  0  0  0  0  0  0  0  0  0  0  0
    9.2721   -0.5521   -1.4983 H   0  0  0  0  0  0  0  0  0  0  0  0
   10.5709   -1.4180    0.4157 H   0  0  0  0  0  0  0  0  0  0  0  0
    9.5434   -1.5568    2.6660 H   0  0  0  0  0  0  0  0  0  0  0  0
    7.2045   -0.8284    3.0161 H   0  0  0  0  0  0  0  0  0  0  0  0
    1.0506    2.0470    1.0072 H   0  0  0  0  0  0  0  0  0  0  0  0
   -1.3902    2.2057    0.9579 H   0  0  0  0  0  0  0  0  0  0  0  0
   -5.4609   -2.1328   -1.6582 H   0  0  0  0  0  0  0  0  0  0  0  0
   -7.9166   -2.0018   -2.0755 H   0  0  0  0  0  0  0  0  0  0  0  0
  -10.6215    1.5662   -0.0705 H   0  0  0  0  0  0  0  0  0  0  0  0
   -8.3026    2.3697    0.9920 H   0  0  0  0  0  0  0  0  0  0  0  0
   -5.7391    1.3902    0.8404 H   0  0  0  0  0  0  0  0  0  0  0  0
  1  2  1  0
  2  3  1  0
  3  4  2  0
  3  5  1  0
  5  6  2  0
  6  7  1  0
  7  8  2  0
  8  9  1  0
  9 10  1  0
 10 11  1  0
 11 12  2  0
 12 13  1  0
 13 14  2  0
 14 15  1  0
 15 16  2  0
 16 17  1  0
 17 18  2  0
 18 19  1  0
 19 20  2  0
  8 21  1  0
 21 22  2  0
  2 23  1  0
 23 24  1  0
 24 25  2  0
 25 26  1  0
 26 27  2  0
 27 28  1  0
 28 29  2  0
 29 30  1  0
 30 31  1  0
 22  5  1  0
 31 23  2  0
 20 11  1  0
 30 26  1  0
 19 14  1  0
  1 32  1  0
  1 33  1  0
  1 34  1  0
  6 35  1  0
  7 36  1  0
 10 37  1  0
 10 38  1  0
 12 39  1  0
 13 40  1  0
 15 41  1  0
 16 42  1  0
 17 43  1  0
 18 44  1  0
 21 45  1  0
 22 46  1  0
 24 47  1  0
 25 48  1  0
 28 49  1  0
 29 50  1  0
 31 51  1  0
M  END
$$$$

     RDKit          3D

 49 53  0  0  0  0  0  0  0  0999 V2000
   -2.5650   -1.9999   -2.9837 C   0  0  0  0  0  0  0  0  0  0  0  0
   -3.4776   -2.0893   -1.8477 N   0  0  0  0  0  0  0  0  0  0  0  0
   -4.6732   -2.6551   -1.9314 N   0  0  0  0  0  0  0  0  0  0  0  0
   -5.2994   -2.4859   -0.7504 C   0  0  0  0  0  0  0  0  0  0  0  0
   -4.4804   -1.7686    0.0963 C   0  0  0  0  0  0  0  0  0  0  0  0
   -4.7903   -1.3629    1.4687 C   0  0  0  0  0  0  0  0  0  0  0  0
   -4.7607   -2.2148    2.3949 O   0  0  0  0  0  0  0  0  0  0  0  0
   -5.1536   -0.0141    1.7545 N   0  0  0  0  0  0  0  0  0  0  0  0
   -5.4708    1.2148    1.0048 C   0  0  0  0  0  0  0  0  0  0  0  0
   -5.7937    2.0492    2.2000 C   0  0  0  0  0  0  0  0  0  0  0  0
   -5.4738    0.7942    2.9434 C   0  0  0  0  0  0  0  0  0  0  0  0
   -3.3198   -1.5419   -0.6200 C   0  0  0  0  0  0  0  0  0  0  0  0
   -2.1312   -0.8076   -0.1389 C   0  0  0  0  0  0  0  0  0  0  0  0
   -2.2948    0.2689    0.4944 O   0  0  0  0  0  0  0  0  0  0  0  0
   -0.8083   -1.3166   -0.3768 N   0  0  0  0  0  0  0  0  0  0  0  0
    0.3972   -0.6458    0.0245 C   0  0  0  0  0  0  0  0  0  0  0  0
    0.5068    0.0069    1.2788 C   0  0  0  0  0  0  0  0  0  0  0  0
    1.7074    0.6315    1.6561 C   0  0  0  0  0  0  0  0  0  0  0  0
    2.7723    0.5673    0.7639 C   0  0  0  0  0  0  0  0  0  0  0  0
    3.9992    1.0900    0.9354 N   0  0  0  0  0  0  0  0  0  0  0  0
    4.6136    0.7187   -0.2211 C   0  0  0  0  0  0  0  0  0  0  0  0
    6.0177    1.0531   -0.5430 C   0  0  0  0  0  0  0  0  0  0  0  0
    6.8003    1.7930    0.3621 C   0  0  0  0  0  0  0  0  0  0  0  0
    8.1279    2.1080    0.0553 C   0  0  0  0  0  0  0  0  0  0  0  0
    8.6862    1.6891   -1.1546 C   0  0  0  0  0  0  0  0  0  0  0  0
    7.9180    0.9540   -2.0605 C   0  0  0  0  0  0  0  0  0  0  0  0
    6.5900    0.6362   -1.7588 C   0  0  0  0  0  0  0  0  0  0  0  0
    3.8051    0.0084   -1.0472 N   0  0  0  0  0  0  0  0  0  0  0  0
    2.6584   -0.0703   -0.4038 N   0  0  0  0  0  0  0  0  0  0  0  0
    1.5252   -0.6891   -0.8166 C   0  0  0  0  0  0  0  0  0  0  0  0
   -1.7193   -2.7035   -2.8507 H   0  0  0  0  0  0  0  0  0  0  0  0
   -2.1858   -0.9613   -3.0883 H   0  0  0  0  0  0  0  0  0  0  0  0
   -3.0950   -2.2768   -3.9198 H   0  0  0  0  0  0  0  0  0  0  0  0
   -6.2958   -2.8455   -0.5300 H   0  0  0  0  0  0  0  0  0  0  0  0
   -4.5837    1.5890    0.4491 H   0  0  0  0  0  0  0  0  0  0  0  0
   -6.3508    1.0583    0.3421 H   0  0  0  0  0  0  0  0  0  0  0  0
   -6.8668    2.3334    2.2597 H   0  0  0  0  0  0  0  0  0  0  0  0
   -5.0580    2.8635    2.3777 H   0  0  0  0  0  0  0  0  0  0  0  0
   -6.3552    0.3787    3.4807 H   0  0  0  0  0  0  0  0  0  0  0  0
   -4.5835    0.9010    3.6022 H   0  0  0  0  0  0  0  0  0  0  0  0
   -0.7029   -2.2045   -0.9135 H   0  0  0  0  0  0  0  0  0  0  0  0
   -0.3196    0.0080    1.9763 H   0  0  0  0  0  0  0  0  0  0  0  0
    1.8029    1.1322    2.6110 H   0  0  0  0  0  0  0  0  0  0  0  0
    6.3879    2.1279    1.3057 H   0  0  0  0  0  0  0  0  0  0  0  0
    8.7241    2.6776    0.7565 H   0  0  0  0  0  0  0  0  0  0  0  0
    9.7138    1.9340   -1.3901 H   0  0  0  0  0  0  0  0  0  0  0  0
    8.3517    0.6299   -2.9977 H   0  0  0  0  0  0  0  0  0  0  0  0
    6.0129    0.0655   -2.4755 H   0  0  0  0  0  0  0  0  0  0  0  0
    1.4904   -1.1946   -1.7740 H   0  0  0  0  0  0  0  0  0  0  0  0
  1  2  1  0
  2  3  1  0
  3  4  2  0
  4  5  1  0
  5  6  1  0
  6  7  2  0
  6  8  1  0
  8  9  1  0
  9 10  1  0
 10 11  1  0
  5 12  2  0
 12 13  1  0
 13 14  2  0
 13 15  1  0
 15 16  1  0
 16 17  1  0
 17 18  2  0
 18 19  1  0
 19 20  2  0
 20 21  1  0
 21 22  1  0
 22 23  2  0
 23 24  1  0
 24 25  2  0
 25 26  1  0
 26 27  2  0
 21 28  2  0
 28 29  1  0
 29 30  1  0
 12  2  1  0
 30 16  2  0
 11  8  1  0
 29 19  1  0
 27 22  1  0
  1 31  1  0
  1 32  1  0
  1 33  1  0
  4 34  1  0
  9 35  1  0
  9 36  1  0
 10 37  1  0
 10 38  1  0
 11 39  1  0
 11 40  1  0
 15 41  1  0
 17 42  1  0
 18 43  1  0
 23 44  1  0
 24 45  1  0
 25 46  1  0
 26 47  1  0
 27 48  1  0
 30 49  1  0
M  END
$$$$

     RDKit          3D

 58 61  0  0  0  0  0  0  0  0999 V2000
    4.4257   -0.2709    1.6870 C   0  0  0  0  0  0  0  0  0  0  0  0
    3.4393   -0.8300    0.6404 C   0  0  0  0  0  0  0  0  0  0  0  0
    3.0450   -2.2725    1.0207 C   0  0  0  0  0  0  0  0  0  0  0  0
    2.2922   -0.0139    0.5948 O   0  0  0  0  0  0  0  0  0  0  0  0
    4.1201   -0.8018   -0.7488 C   0  0  0  0  0  0  0  0  0  0  0  0
    3.2720   -1.4084   -1.7801 N   0  0  0  0  0  0  0  0  0  0  0  0
    2.3970   -0.6774   -2.6532 C   0  0  0  0  0  0  0  0  0  0  0  0
    1.6919   -1.3099   -3.4841 O   0  0  0  0  0  0  0  0  0  0  0  0
    2.2995    0.7948   -2.6184 C   0  0  0  0  0  0  0  0  0  0  0  0
    3.3444    1.5634   -3.1632 C   0  0  0  0  0  0  0  0  0  0  0  0
    4.4385    0.9586   -3.6923 F   0  0  0  0  0  0  0  0  0  0  0  0
    3.2603    2.9570   -3.1798 C   0  0  0  0  0  0  0  0  0  0  0  0
    2.1252    3.5950   -2.6828 C   0  0  0  0  0  0  0  0  0  0  0  0
    1.0709    2.8431   -2.1574 C   0  0  0  0  0  0  0  0  0  0  0  0
    1.1527    1.4388   -2.0915 C   0  0  0  0  0  0  0  0  0  0  0  0
    0.0740    0.6641   -1.5262 N   0  0  0  0  0  0  0  0  0  0  0  0
   -0.7112    1.0745   -0.3931 C   0  0  0  0  0  0  0  0  0  0  0  0
   -0.4320    2.1400    0.2165 O   0  0  0  0  0  0  0  0  0  0  0  0
   -1.8772    0.2621    0.0255 C   0  0  0  0  0  0  0  0  0  0  0  0
   -2.5104   -0.4754   -0.9277 N   0  0  0  0  0  0  0  0  0  0  0  0
   -3.6375   -1.1859   -0.6679 C   0  0  0  0  0  0  0  0  0  0  0  0
   -4.2964   -1.9729   -1.7630 C   0  0  0  0  0  0  0  0  0  0  0  0
   -4.4967   -3.4511   -1.4612 C   0  0  0  0  0  0  0  0  0  0  0  0
   -3.4008   -3.0152   -2.4168 C   0  0  0  0  0  0  0  0  0  0  0  0
   -4.2017   -1.1121    0.6060 C   0  0  0  0  0  0  0  0  0  0  0  0
   -3.5668   -0.4061    1.5741 N   0  0  0  0  0  0  0  0  0  0  0  0
   -2.4051    0.2644    1.3431 C   0  0  0  0  0  0  0  0  0  0  0  0
   -1.7167    0.8994    2.4400 N   0  0  0  0  0  0  0  0  0  0  0  0
   -2.3615    1.3588    3.6401 C   0  0  0  0  0  0  0  0  0  0  0  0
   -2.0308    2.6121    4.1660 C   0  0  0  0  0  0  0  0  0  0  0  0
   -2.6300    3.0572    5.3024 N   0  0  0  0  0  0  0  0  0  0  0  0
   -3.5419    2.2936    5.9566 C   0  0  0  0  0  0  0  0  0  0  0  0
   -3.8495    1.0557    5.4895 N   0  0  0  0  0  0  0  0  0  0  0  0
   -3.2740    0.5700    4.3578 C   0  0  0  0  0  0  0  0  0  0  0  0
    5.3588   -0.8763    1.7095 H   0  0  0  0  0  0  0  0  0  0  0  0
    4.6888    0.7824    1.4485 H   0  0  0  0  0  0  0  0  0  0  0  0
    3.9744   -0.2908    2.7032 H   0  0  0  0  0  0  0  0  0  0  0  0
    2.6515   -2.3071    2.0596 H   0  0  0  0  0  0  0  0  0  0  0  0
    3.9243   -2.9500    0.9560 H   0  0  0  0  0  0  0  0  0  0  0  0
    2.2438   -2.6491    0.3476 H   0  0  0  0  0  0  0  0  0  0  0  0
    1.8484   -0.0513    1.4829 H   0  0  0  0  0  0  0  0  0  0  0  0
    5.0833   -1.3570   -0.7120 H   0  0  0  0  0  0  0  0  0  0  0  0
    4.3726    0.2450   -1.0135 H   0  0  0  0  0  0  0  0  0  0  0  0
    3.3290   -2.4440   -1.9022 H   0  0  0  0  0  0  0  0  0  0  0  0
    4.0693    3.5447   -3.5957 H   0  0  0  0  0  0  0  0  0  0  0  0
    2.0524    4.6738   -2.7206 H   0  0  0  0  0  0  0  0  0  0  0  0
    0.1841    3.3643   -1.8255 H   0  0  0  0  0  0  0  0  0  0  0  0
   -0.0877   -0.3010   -1.8878 H   0  0  0  0  0  0  0  0  0  0  0  0
   -5.0480   -1.4970   -2.4270 H   0  0  0  0  0  0  0  0  0  0  0  0
   -5.3752   -3.9109   -1.9624 H   0  0  0  0  0  0  0  0  0  0  0  0
   -4.1109   -3.8143   -0.4837 H   0  0  0  0  0  0  0  0  0  0  0  0
   -2.3745   -3.1168   -1.9989 H   0  0  0  0  0  0  0  0  0  0  0  0
   -3.6330   -3.2201   -3.4835 H   0  0  0  0  0  0  0  0  0  0  0  0
   -5.1208   -1.6335    0.8378 H   0  0  0  0  0  0  0  0  0  0  0  0
   -0.7056    1.1374    2.3398 H   0  0  0  0  0  0  0  0  0  0  0  0
   -1.3111    3.2436    3.6604 H   0  0  0  0  0  0  0  0  0  0  0  0
   -4.0151    2.6664    6.8552 H   0  0  0  0  0  0  0  0  0  0  0  0
   -3.5077   -0.4377    4.0473 H   0  0  0  0  0  0  0  0  0  0  0  0
  1  2  1  0
  2  3  1  0
  2  4  1  0
  2  5  1  0
  5  6  1  0
  6  7  1  0
  7  8  2  0
  7  9  1  0
  9 10  2  0
 10 11  1  0
 10 12  1  0
 12 13  2  0
 13 14  1  0
 14 15  2  0
 15 16  1  0
 16 17  1  0
 17 18  2  0
 17 19  1  0
 19 20  2  0
 20 21  1  0
 21 22  1  0
 22 23  1  0
 23 24  1  0
 21 25  2  0
 25 26  1  0
 26 27  2  0
 27 28  1  0
 28 29  1  0
 29 30  2  0
 30 31  1  0
 31 32  2  0
 32 33  1  0
 33 34  2  0
 15  9  1  0
 27 19  1  0
 34 29  1  0
 24 22  1  0
  1 35  1  0
  1 36  1  0
  1 37  1  0
  3 38  1  0
  3 39  1  0
  3 40  1  0
  4 41  1  0
  5 42  1  0
  5 43  1  0
  6 44  1  0
 12 45  1  0
 13 46  1  0
 14 47  1  0
 16 48  1  0
 22 49  1  0
 23 50  1  0
 23 51  1  0
 24 52  1  0
 24 53  1  0
 25 54  1  0
 28 55  1  0
 30 56  1  0
 32 57  1  0
 34 58  1  0
M  END
$$$$

     RDKit          3D

 68 73  0  0  0  0  0  0  0  0999 V2000
    7.0271    1.7910    1.8841 O   0  0  0  0  0  0  0  0  0  0  0  0
    5.7547    2.4618    1.4476 S   0  0  0  0  0  6  0  0  0  0  0  0
    5.1856    3.2564    2.5885 O   0  0  0  0  0  0  0  0  0  0  0  0
    6.0586    3.5165    0.0957 N   0  0  0  0  0  0  0  0  0  0  0  0
    6.9176    4.6438    0.4815 C   0  0  0  0  0  0  0  0  0  0  0  0
    8.3790    4.3378    0.1701 C   0  0  0  0  0  0  0  0  0  0  0  0
    8.5541    4.2213   -1.2135 O   0  0  0  0  0  0  0  0  0  0  0  0
    4.6051    1.2231    0.9558 C   0  0  0  0  0  0  0  0  0  0  0  0
    4.8506    0.4625   -0.1957 C   0  0  0  0  0  0  0  0  0  0  0  0
    3.9452   -0.5244   -0.5983 C   0  0  0  0  0  0  0  0  0  0  0  0
    2.7786   -0.7603    0.1482 C   0  0  0  0  0  0  0  0  0  0  0  0
    1.8258   -1.8175   -0.2635 C   0  0  0  0  0  0  0  0  0  0  0  0
    2.2811   -3.1210   -0.5311 C   0  0  0  0  0  0  0  0  0  0  0  0
    1.3860   -4.1041   -0.8327 N   0  0  0  0  0  0  0  0  0  0  0  0
    0.0373   -3.8848   -0.8980 C   0  0  0  0  0  0  0  0  0  0  0  0
   -0.8512   -4.9899   -1.2174 N   0  0  0  0  0  0  0  0  0  0  0  0
   -0.2858   -6.3550   -1.1576 C   0  0  0  0  0  0  0  0  0  0  0  0
   -1.2871   -7.4727   -1.5146 C   0  0  0  0  0  0  0  0  0  0  0  0
   -2.6251   -7.1007   -1.2646 O   0  0  0  0  0  0  0  0  0  0  0  0
   -2.9441   -6.0060   -2.0852 C   0  0  0  0  0  0  0  0  0  0  0  0
   -2.2651   -4.7548   -1.5470 C   0  0  0  0  0  0  0  0  0  0  0  0
   -0.4047   -2.5753   -0.6243 C   0  0  0  0  0  0  0  0  0  0  0  0
   -1.6806   -2.1423   -0.5855 N   0  0  0  0  0  0  0  0  0  0  0  0
   -1.5709   -0.8286   -0.2877 C   0  0  0  0  0  0  0  0  0  0  0  0
   -2.7455    0.0390   -0.0841 C   0  0  0  0  0  0  0  0  0  0  0  0
   -2.6572    1.3701    0.0313 C   0  0  0  0  0  0  0  0  0  0  0  0
   -3.8392    2.2171    0.2993 C   0  0  0  0  0  0  0  0  0  0  0  0
   -3.7292    3.6138    0.2329 C   0  0  0  0  0  0  0  0  0  0  0  0
   -4.8463    4.4080    0.5036 C   0  0  0  0  0  0  0  0  0  0  0  0
   -6.0626    3.8071    0.8487 C   0  0  0  0  0  0  0  0  0  0  0  0
   -7.2024    4.5741    1.1295 C   0  0  0  0  0  0  0  0  0  0  0  0
   -8.3995    3.9420    1.4807 C   0  0  0  0  0  0  0  0  0  0  0  0
   -8.4640    2.5466    1.5602 C   0  0  0  0  0  0  0  0  0  0  0  0
   -7.3339    1.7748    1.2759 C   0  0  0  0  0  0  0  0  0  0  0  0
   -6.1336    2.3969    0.9166 C   0  0  0  0  0  0  0  0  0  0  0  0
   -5.0324    1.6504    0.6406 N   0  0  0  0  0  0  0  0  0  0  0  0
   -0.2365   -0.4850   -0.1442 C   0  0  0  0  0  0  0  0  0  0  0  0
    0.4825   -1.6024   -0.3373 N   0  0  0  0  0  0  0  0  0  0  0  0
    2.5514   -0.0149    1.3165 C   0  0  0  0  0  0  0  0  0  0  0  0
    3.4515    0.9768    1.7115 C   0  0  0  0  0  0  0  0  0  0  0  0
    5.1294    3.8975   -0.1910 H   0  0  0  0  0  0  0  0  0  0  0  0
    6.8041    4.9094    1.5562 H   0  0  0  0  0  0  0  0  0  0  0  0
    6.6271    5.5486   -0.0991 H   0  0  0  0  0  0  0  0  0  0  0  0
    9.0061    5.1729    0.5516 H   0  0  0  0  0  0  0  0  0  0  0  0
    8.6940    3.4004    0.6733 H   0  0  0  0  0  0  0  0  0  0  0  0
    9.5102    3.9923   -1.3501 H   0  0  0  0  0  0  0  0  0  0  0  0
    5.7455    0.6342   -0.7818 H   0  0  0  0  0  0  0  0  0  0  0  0
    4.1503   -1.0975   -1.4927 H   0  0  0  0  0  0  0  0  0  0  0  0
    3.3357   -3.3584   -0.4791 H   0  0  0  0  0  0  0  0  0  0  0  0
    0.1155   -6.5351   -0.1318 H   0  0  0  0  0  0  0  0  0  0  0  0
    0.5696   -6.4273   -1.8710 H   0  0  0  0  0  0  0  0  0  0  0  0
   -1.0542   -8.3629   -0.8885 H   0  0  0  0  0  0  0  0  0  0  0  0
   -1.1541   -7.7987   -2.5745 H   0  0  0  0  0  0  0  0  0  0  0  0
   -4.0427   -5.8570   -2.0637 H   0  0  0  0  0  0  0  0  0  0  0  0
   -2.6694   -6.1775   -3.1527 H   0  0  0  0  0  0  0  0  0  0  0  0
   -2.3497   -3.9560   -2.3178 H   0  0  0  0  0  0  0  0  0  0  0  0
   -2.8012   -4.4394   -0.6248 H   0  0  0  0  0  0  0  0  0  0  0  0
   -3.7143   -0.4433   -0.0319 H   0  0  0  0  0  0  0  0  0  0  0  0
   -1.6961    1.8592   -0.0779 H   0  0  0  0  0  0  0  0  0  0  0  0
   -2.7896    4.0826   -0.0338 H   0  0  0  0  0  0  0  0  0  0  0  0
   -4.7562    5.4854    0.4470 H   0  0  0  0  0  0  0  0  0  0  0  0
   -7.1721    5.6546    1.0717 H   0  0  0  0  0  0  0  0  0  0  0  0
   -9.2769    4.5346    1.7013 H   0  0  0  0  0  0  0  0  0  0  0  0
   -9.3908    2.0640    1.8442 H   0  0  0  0  0  0  0  0  0  0  0  0
   -7.3924    0.6960    1.3439 H   0  0  0  0  0  0  0  0  0  0  0  0
    0.1680    0.4874    0.0985 H   0  0  0  0  0  0  0  0  0  0  0  0
    1.6803   -0.2027    1.9287 H   0  0  0  0  0  0  0  0  0  0  0  0
    3.2490    1.5460    2.6094 H   0  0  0  0  0  0  0  0  0  0  0  0
  1  2  2  0
  2  3  2  0
  2  4  1  0
  4  5  1  0
  5  6  1  0
  6  7  1  0
  2  8  1  0
  8  9  2  0
  9 10  1  0
 10 11  2  0
 11 12  1  0
 12 13  2  0
 13 14  1  0
 14 15  2  0
 15 16  1  0
 16 17  1  0
 17 18  1  0
 18 19  1  0
 19 20  1  0
 20 21  1  0
 15 22  1  0
 22 23  2  0
 23 24  1  0
 24 25  1  0
 25 26  2  0
 26 27  1  0
 27 28  2  0
 28 29  1  0
 29 30  2  0
 30 31  1  0
 31 32  2  0
 32 33  1  0
 33 34  2  0
 34 35  1  0
 35 36  2  0
 24 37  2  0
 37 38  1  0
 11 39  1  0
 39 40  2  0
 40  8  1  0
 38 12  1  0
 21 16  1  0
 38 22  1  0
 36 27  1  0
 35 30  1  0
  4 41  1  0
  5 42  1  0
  5 43  1  0
  6 44  1  0
  6 45  1  0
  7 46  1  0
  9 47  1  0
 10 48  1  0
 13 49  1  0
 17 50  1  0
 17 51  1  0
 18 52  1  0
 18 53  1  0
 20 54  1  0
 20 55  1  0
 21 56  1  0
 21 57  1  0
 25 58  1  0
 26 59  1  0
 28 60  1  0
 29 61  1  0
 31 62  1  0
 32 63  1  0
 33 64  1  0
 34 65  1  0
 37 66  1  0
 39 67  1  0
 40 68  1  0
M  END
$$$$

     RDKit          3D

 54 57  0  0  0  0  0  0  0  0999 V2000
    3.2605   -3.7165   -3.0822 C   0  0  0  0  0  0  0  0  0  0  0  0
    2.9168   -2.9560   -1.8852 N   0  0  0  0  0  0  0  0  0  0  0  0
    3.3219   -1.5953   -1.6746 C   0  0  0  0  0  0  0  0  0  0  0  0
    3.8813   -0.9499   -2.6015 O   0  0  0  0  0  0  0  0  0  0  0  0
    3.0458   -0.9209   -0.3906 C   0  0  0  0  0  0  0  0  0  0  0  0
    2.5415    0.3539   -0.2315 C   0  0  0  0  0  0  0  0  0  0  0  0
    2.1847    1.2785   -1.2686 N   0  0  0  0  0  0  0  0  0  0  0  0
    1.0412    2.1429   -1.1907 C   0  0  0  0  0  0  0  0  0  0  0  0
    1.0466    3.2179   -1.8485 O   0  0  0  0  0  0  0  0  0  0  0  0
   -0.1758    1.7341   -0.4485 C   0  0  0  0  0  0  0  0  0  0  0  0
   -0.4184    0.4057   -0.2924 N   0  0  0  0  0  0  0  0  0  0  0  0
   -1.5204   -0.0797    0.3397 C   0  0  0  0  0  0  0  0  0  0  0  0
   -1.6837   -1.5130    0.4904 N   0  0  0  0  0  0  0  0  0  0  0  0
   -0.6953   -2.3884   -0.1666 C   0  0  0  0  0  0  0  0  0  0  0  0
   -0.8451   -3.8577    0.2318 C   0  0  0  0  0  0  0  0  0  0  0  0
   -2.2039   -4.2264    0.2788 O   0  0  0  0  0  0  0  0  0  0  0  0
   -2.8100   -3.5742    1.3709 C   0  0  0  0  0  0  0  0  0  0  0  0
   -2.8892   -2.0611    1.1408 C   0  0  0  0  0  0  0  0  0  0  0  0
   -2.4611    0.8451    0.8250 C   0  0  0  0  0  0  0  0  0  0  0  0
   -2.2279    2.1749    0.6822 N   0  0  0  0  0  0  0  0  0  0  0  0
   -1.1158    2.6539    0.0609 C   0  0  0  0  0  0  0  0  0  0  0  0
   -0.8767    4.0708    0.0257 N   0  0  0  0  0  0  0  0  0  0  0  0
   -1.9243    5.0549   -0.0225 C   0  0  0  0  0  0  0  0  0  0  0  0
   -1.6912    6.3509    0.4517 C   0  0  0  0  0  0  0  0  0  0  0  0
   -2.6701    7.2901    0.3821 N   0  0  0  0  0  0  0  0  0  0  0  0
   -3.8819    6.9968   -0.1552 C   0  0  0  0  0  0  0  0  0  0  0  0
   -4.1271    5.7531   -0.6416 N   0  0  0  0  0  0  0  0  0  0  0  0
   -3.1780    4.7824   -0.5907 C   0  0  0  0  0  0  0  0  0  0  0  0
    2.3502    0.5159    1.1268 C   0  0  0  0  0  0  0  0  0  0  0  0
    2.7357   -0.6115    1.7570 N   0  0  0  0  0  0  0  0  0  0  0  0
    3.1599   -1.4713    0.8408 N   0  0  0  0  0  0  0  0  0  0  0  0
    3.6391   -2.8082    1.1758 C   0  0  0  0  0  0  0  0  0  0  0  0
    3.8967   -3.1274   -3.7752 H   0  0  0  0  0  0  0  0  0  0  0  0
    3.8121   -4.6337   -2.7885 H   0  0  0  0  0  0  0  0  0  0  0  0
    2.3297   -4.0088   -3.6118 H   0  0  0  0  0  0  0  0  0  0  0  0
    2.3048   -3.4220   -1.1794 H   0  0  0  0  0  0  0  0  0  0  0  0
    2.7935    1.3417   -2.1145 H   0  0  0  0  0  0  0  0  0  0  0  0
   -0.8094   -2.2952   -1.2688 H   0  0  0  0  0  0  0  0  0  0  0  0
    0.3332   -2.0669    0.1043 H   0  0  0  0  0  0  0  0  0  0  0  0
   -0.3350   -4.4863   -0.5283 H   0  0  0  0  0  0  0  0  0  0  0  0
   -0.3285   -4.0560    1.2000 H   0  0  0  0  0  0  0  0  0  0  0  0
   -2.2807   -3.7974    2.3269 H   0  0  0  0  0  0  0  0  0  0  0  0
   -3.8412   -3.9694    1.4885 H   0  0  0  0  0  0  0  0  0  0  0  0
   -3.0314   -1.5821    2.1337 H   0  0  0  0  0  0  0  0  0  0  0  0
   -3.7742   -1.8351    0.5068 H   0  0  0  0  0  0  0  0  0  0  0  0
   -3.3681    0.5311    1.3199 H   0  0  0  0  0  0  0  0  0  0  0  0
    0.1048    4.4075    0.1536 H   0  0  0  0  0  0  0  0  0  0  0  0
   -0.7334    6.6123    0.8823 H   0  0  0  0  0  0  0  0  0  0  0  0
   -4.6499    7.7566   -0.2035 H   0  0  0  0  0  0  0  0  0  0  0  0
   -3.3978    3.8118   -1.0135 H   0  0  0  0  0  0  0  0  0  0  0  0
    1.9499    1.3893    1.6250 H   0  0  0  0  0  0  0  0  0  0  0  0
    2.7929   -3.5258    1.1513 H   0  0  0  0  0  0  0  0  0  0  0  0
    4.0749   -2.8073    2.1972 H   0  0  0  0  0  0  0  0  0  0  0  0
    4.4280   -3.1281    0.4629 H   0  0  0  0  0  0  0  0  0  0  0  0
  1  2  1  0
  2  3  1  0
  3  4  2  0
  3  5  1  0
  5  6  2  0
  6  7  1  0
  7  8  1  0
  8  9  2  0
  8 10  1  0
 10 11  2  0
 11 12  1  0
 12 13  1  0
 13 14  1  0
 14 15  1  0
 15 16  1  0
 16 17  1  0
 17 18  1  0
 12 19  2  0
 19 20  1  0
 20 21  2  0
 21 22  1  0
 22 23  1  0
 23 24  2  0
 24 25  1  0
 25 26  2  0
 26 27  1  0
 27 28  2  0
  6 29  1  0
 29 30  2  0
 30 31  1  0
 31 32  1  0
 31  5  1  0
 21 10  1  0
 28 23  1  0
 18 13  1  0
  1 33  1  0
  1 34  1  0
  1 35  1  0
  2 36  1  0
  7 37  1  0
 14 38  1  0
 14 39  1  0
 15 40  1  0
 15 41  1  0
 17 42  1  0
 17 43  1  0
 18 44  1  0
 18 45  1  0
 19 46  1  0
 22 47  1  0
 24 48  1  0
 26 49  1  0
 28 50  1  0
 29 51  1  0
 32 52  1  0
 32 53  1  0
 32 54  1  0
M  END
$$$$

     RDKit          3D

 51 53  0  0  0  0  0  0  0  0999 V2000
   -5.8884    1.9800    1.3085 C   0  0  0  0  0  0  0  0  0  0  0  0
   -5.3210    1.3654    0.1148 N   0  0  0  0  0  0  0  0  0  0  0  0
   -4.2223    0.4477    0.1919 C   0  0  0  0  0  0  0  0  0  0  0  0
   -3.6257    0.2756    1.2901 O   0  0  0  0  0  0  0  0  0  0  0  0
   -3.7515   -0.2789   -1.0066 C   0  0  0  0  0  0  0  0  0  0  0  0
   -2.4401   -0.6034   -1.2994 C   0  0  0  0  0  0  0  0  0  0  0  0
   -1.2705   -0.1788   -0.5839 N   0  0  0  0  0  0  0  0  0  0  0  0
   -0.0217   -0.8869   -0.6156 C   0  0  0  0  0  0  0  0  0  0  0  0
    0.0402   -2.0362   -1.1303 O   0  0  0  0  0  0  0  0  0  0  0  0
    1.1914   -0.2643   -0.0417 C   0  0  0  0  0  0  0  0  0  0  0  0
    1.2697    1.0934   -0.0203 N   0  0  0  0  0  0  0  0  0  0  0  0
    2.3631    1.7447    0.4578 C   0  0  0  0  0  0  0  0  0  0  0  0
    2.3765    3.2610    0.4951 C   0  0  0  0  0  0  0  0  0  0  0  0
    3.8151    3.8128    0.5334 C   0  0  0  0  0  0  0  0  0  0  0  0
    1.6189    3.7302    1.7429 C   0  0  0  0  0  0  0  0  0  0  0  0
    1.7145    3.7732   -0.6366 O   0  0  0  0  0  0  0  0  0  0  0  0
    3.3989    1.0260    0.9660 N   0  0  0  0  0  0  0  0  0  0  0  0
    3.3773   -0.3301    0.9707 C   0  0  0  0  0  0  0  0  0  0  0  0
    2.2734   -1.0218    0.4550 C   0  0  0  0  0  0  0  0  0  0  0  0
    2.2089   -2.4549    0.5500 N   0  0  0  0  0  0  0  0  0  0  0  0
    3.3018   -3.3318    0.2221 C   0  0  0  0  0  0  0  0  0  0  0  0
    4.3344   -2.9439   -0.6450 C   0  0  0  0  0  0  0  0  0  0  0  0
    5.3309   -3.8158   -0.9491 N   0  0  0  0  0  0  0  0  0  0  0  0
    5.3439   -5.0708   -0.4309 C   0  0  0  0  0  0  0  0  0  0  0  0
    4.3465   -5.4751    0.3966 N   0  0  0  0  0  0  0  0  0  0  0  0
    3.3296   -4.6369    0.7262 C   0  0  0  0  0  0  0  0  0  0  0  0
   -2.4844   -1.3017   -2.4909 C   0  0  0  0  0  0  0  0  0  0  0  0
   -3.7698   -1.4162   -2.8790 N   0  0  0  0  0  0  0  0  0  0  0  0
   -4.5306   -0.8130   -1.9756 N   0  0  0  0  0  0  0  0  0  0  0  0
   -5.9871   -0.7843   -2.0648 C   0  0  0  0  0  0  0  0  0  0  0  0
   -6.2753    1.1927    1.9887 H   0  0  0  0  0  0  0  0  0  0  0  0
   -6.7245    2.6531    1.0240 H   0  0  0  0  0  0  0  0  0  0  0  0
   -5.1105    2.5767    1.8306 H   0  0  0  0  0  0  0  0  0  0  0  0
   -5.6946    1.6518   -0.8158 H   0  0  0  0  0  0  0  0  0  0  0  0
   -1.3499    0.6581    0.0359 H   0  0  0  0  0  0  0  0  0  0  0  0
    4.3338    3.5077    1.4681 H   0  0  0  0  0  0  0  0  0  0  0  0
    3.8001    4.9226    0.4865 H   0  0  0  0  0  0  0  0  0  0  0  0
    4.3973    3.4368   -0.3344 H   0  0  0  0  0  0  0  0  0  0  0  0
    0.5670    3.3703    1.7155 H   0  0  0  0  0  0  0  0  0  0  0  0
    1.6028    4.8405    1.7907 H   0  0  0  0  0  0  0  0  0  0  0  0
    2.1003    3.3407    2.6663 H   0  0  0  0  0  0  0  0  0  0  0  0
    2.2038    3.4575   -1.4423 H   0  0  0  0  0  0  0  0  0  0  0  0
    4.2097   -0.8697    1.4027 H   0  0  0  0  0  0  0  0  0  0  0  0
    1.3278   -2.8796    0.9190 H   0  0  0  0  0  0  0  0  0  0  0  0
    4.3426   -1.9598   -1.0934 H   0  0  0  0  0  0  0  0  0  0  0  0
    6.1459   -5.7513   -0.6832 H   0  0  0  0  0  0  0  0  0  0  0  0
    2.5455   -4.9857    1.3855 H   0  0  0  0  0  0  0  0  0  0  0  0
   -1.6442   -1.6760   -3.0590 H   0  0  0  0  0  0  0  0  0  0  0  0
   -6.3435   -1.6292   -2.6911 H   0  0  0  0  0  0  0  0  0  0  0  0
   -6.3165    0.1659   -2.5331 H   0  0  0  0  0  0  0  0  0  0  0  0
   -6.4396   -0.8885   -1.0561 H   0  0  0  0  0  0  0  0  0  0  0  0
  1  2  1  0
  2  3  1  0
  3  4  2  0
  3  5  1  0
  5  6  2  0
  6  7  1  0
  7  8  1  0
  8  9  2  0
  8 10  1  0
 10 11  2  0
 11 12  1  0
 12 13  1  0
 13 14  1  0
 13 15  1  0
 13 16  1  0
 12 17  2  0
 17 18  1  0
 18 19  2  0
 19 20  1  0
 20 21  1  0
 21 22  2  0
 22 23  1  0
 23 24  2  0
 24 25  1  0
 25 26  2  0
  6 27  1  0
 27 28  2  0
 28 29  1  0
 29 30  1  0
 29  5  1  0
 19 10  1  0
 26 21  1  0
  1 31  1  0
  1 32  1  0
  1 33  1  0
  2 34  1  0
  7 35  1  0
 14 36  1  0
 14 37  1  0
 14 38  1  0
 15 39  1  0
 15 40  1  0
 15 41  1  0
 16 42  1  0
 18 43  1  0
 20 44  1  0
 22 45  1  0
 24 46  1  0
 26 47  1  0
 27 48  1  0
 30 49  1  0
 30 50  1  0
 30 51  1  0
M  END
$$$$

     RDKit          3D

 62 64  0  0  0  0  0  0  0  0999 V2000
   -1.2616   -1.3878    4.1840 C   0  0  0  0  0  0  0  0  0  0  0  0
   -1.0738   -0.3085    3.1116 C   0  0  0  0  0  0  0  0  0  0  0  0
   -0.1051    0.7719    3.6157 C   0  0  0  0  0  0  0  0  0  0  0  0
   -2.4399    0.2920    2.7132 C   0  0  0  0  0  0  0  0  0  0  0  0
   -2.3215    1.2508    1.5647 C   0  0  0  0  0  0  0  0  0  0  0  0
   -2.7371    2.5356    1.6988 N   0  0  0  0  0  0  0  0  0  0  0  0
   -2.6230    3.4151    0.6721 C   0  0  0  0  0  0  0  0  0  0  0  0
   -2.0640    3.0119   -0.5484 C   0  0  0  0  0  0  0  0  0  0  0  0
   -1.8901    3.9731   -1.6007 N   0  0  0  0  0  0  0  0  0  0  0  0
   -2.9592    4.7864   -2.1155 C   0  0  0  0  0  0  0  0  0  0  0  0
   -4.3088    4.4515   -1.9242 C   0  0  0  0  0  0  0  0  0  0  0  0
   -5.2850    5.2382   -2.4467 N   0  0  0  0  0  0  0  0  0  0  0  0
   -4.9782    6.3507   -3.1623 C   0  0  0  0  0  0  0  0  0  0  0  0
   -3.6798    6.6878   -3.3725 N   0  0  0  0  0  0  0  0  0  0  0  0
   -2.6711    5.9296   -2.8698 C   0  0  0  0  0  0  0  0  0  0  0  0
   -1.6318    1.6713   -0.6738 C   0  0  0  0  0  0  0  0  0  0  0  0
   -1.0045    1.1218   -1.9038 C   0  0  0  0  0  0  0  0  0  0  0  0
   -0.7847    1.8610   -2.9005 O   0  0  0  0  0  0  0  0  0  0  0  0
   -0.6173   -0.2615   -1.9476 N   0  0  0  0  0  0  0  0  0  0  0  0
    0.4326   -0.7418   -2.7993 C   0  0  0  0  0  0  0  0  0  0  0  0
    0.3214   -0.6127   -4.1912 C   0  0  0  0  0  0  0  0  0  0  0  0
    1.2944   -1.1601   -5.0261 C   0  0  0  0  0  0  0  0  0  0  0  0
    2.3697   -1.8446   -4.4633 C   0  0  0  0  0  0  0  0  0  0  0  0
    2.4694   -1.9637   -3.1137 N   0  0  0  0  0  0  0  0  0  0  0  0
    1.5448   -1.4347   -2.2642 C   0  0  0  0  0  0  0  0  0  0  0  0
    1.7620   -1.5726   -0.8043 C   0  0  0  0  0  0  0  0  0  0  0  0
    1.2760   -0.7221   -0.0091 O   0  0  0  0  0  0  0  0  0  0  0  0
    2.5492   -2.6547   -0.2872 N   0  0  0  0  0  0  0  0  0  0  0  0
    2.7223   -2.8386    1.1567 C   0  0  0  0  0  0  0  0  0  0  0  0
    3.6213   -4.0576    1.4919 C   0  0  0  0  0  0  0  0  0  0  0  0
    5.0678   -3.7919    1.0400 C   0  0  0  0  0  0  0  0  0  0  0  0
    3.6129   -4.3031    3.0132 C   0  0  0  0  0  0  0  0  0  0  0  0
    3.1546   -5.2102    0.8308 O   0  0  0  0  0  0  0  0  0  0  0  0
   -1.7850    0.8363    0.3891 N   0  0  0  0  0  0  0  0  0  0  0  0
   -0.2847   -1.8557    4.4324 H   0  0  0  0  0  0  0  0  0  0  0  0
   -1.9389   -2.1860    3.8114 H   0  0  0  0  0  0  0  0  0  0  0  0
   -1.6963   -0.9504    5.1086 H   0  0  0  0  0  0  0  0  0  0  0  0
   -0.6194   -0.7978    2.2212 H   0  0  0  0  0  0  0  0  0  0  0  0
   -0.5333    1.3044    4.4923 H   0  0  0  0  0  0  0  0  0  0  0  0
    0.1047    1.5106    2.8134 H   0  0  0  0  0  0  0  0  0  0  0  0
    0.8620    0.3114    3.9121 H   0  0  0  0  0  0  0  0  0  0  0  0
   -3.1260   -0.5258    2.4032 H   0  0  0  0  0  0  0  0  0  0  0  0
   -2.8980    0.8032    3.5884 H   0  0  0  0  0  0  0  0  0  0  0  0
   -2.9492    4.4375    0.8118 H   0  0  0  0  0  0  0  0  0  0  0  0
   -0.9191    4.1463   -1.9461 H   0  0  0  0  0  0  0  0  0  0  0  0
   -4.5890    3.5629   -1.3750 H   0  0  0  0  0  0  0  0  0  0  0  0
   -5.7687    6.9657   -3.5700 H   0  0  0  0  0  0  0  0  0  0  0  0
   -1.6451    6.2205   -3.0539 H   0  0  0  0  0  0  0  0  0  0  0  0
   -0.9674   -0.9102   -1.2073 H   0  0  0  0  0  0  0  0  0  0  0  0
   -0.5336   -0.1146   -4.6299 H   0  0  0  0  0  0  0  0  0  0  0  0
    1.2079   -1.0670   -6.1009 H   0  0  0  0  0  0  0  0  0  0  0  0
    3.1282   -2.2808   -5.0994 H   0  0  0  0  0  0  0  0  0  0  0  0
    2.9526   -3.3483   -0.9563 H   0  0  0  0  0  0  0  0  0  0  0  0
    1.7190   -2.9785    1.6171 H   0  0  0  0  0  0  0  0  0  0  0  0
    3.1659   -1.9161    1.5930 H   0  0  0  0  0  0  0  0  0  0  0  0
    5.7161   -4.6573    1.2962 H   0  0  0  0  0  0  0  0  0  0  0  0
    5.4762   -2.8856    1.5376 H   0  0  0  0  0  0  0  0  0  0  0  0
    5.1198   -3.6437   -0.0588 H   0  0  0  0  0  0  0  0  0  0  0  0
    4.2376   -5.1868    3.2657 H   0  0  0  0  0  0  0  0  0  0  0  0
    4.0106   -3.4185    3.5565 H   0  0  0  0  0  0  0  0  0  0  0  0
    2.5793   -4.4982    3.3718 H   0  0  0  0  0  0  0  0  0  0  0  0
    2.2120   -5.3598    1.1074 H   0  0  0  0  0  0  0  0  0  0  0  0
  1  2  1  0
  2  3  1  0
  2  4  1  0
  4  5  1  0
  5  6  2  0
  6  7  1  0
  7  8  2  0
  8  9  1  0
  9 10  1  0
 10 11  2  0
 11 12  1  0
 12 13  2  0
 13 14  1  0
 14 15  2  0
  8 16  1  0
 16 17  1  0
 17 18  2  0
 17 19  1  0
 19 20  1  0
 20 21  2  0
 21 22  1  0
 22 23  2  0
 23 24  1  0
 24 25  2  0
 25 26  1  0
 26 27  2  0
 26 28  1  0
 28 29  1  0
 29 30  1  0
 30 31  1  0
 30 32  1  0
 30 33  1  0
 16 34  2  0
 34  5  1  0
 15 10  1  0
 25 20  1  0
  1 35  1  0
  1 36  1  0
  1 37  1  0
  2 38  1  0
  3 39  1  0
  3 40  1  0
  3 41  1  0
  4 42  1  0
  4 43  1  0
  7 44  1  0
  9 45  1  0
 11 46  1  0
 13 47  1  0
 15 48  1  0
 19 49  1  0
 21 50  1  0
 22 51  1  0
 23 52  1  0
 28 53  1  0
 29 54  1  0
 29 55  1  0
 31 56  1  0
 31 57  1  0
 31 58  1  0
 32 59  1  0
 32 60  1  0
 32 61  1  0
 33 62  1  0
M  END
$$$$

     RDKit          3D

 51 54  0  0  0  0  0  0  0  0999 V2000
    4.2767   -3.6954   -0.1657 C   0  0  0  0  0  0  0  0  0  0  0  0
    3.9115   -2.3546   -0.6237 N   0  0  0  0  0  0  0  0  0  0  0  0
    3.8792   -2.0895   -2.0627 C   0  0  0  0  0  0  0  0  0  0  0  0
    3.5181   -1.3315    0.3128 C   0  0  0  0  0  0  0  0  0  0  0  0
    3.0890   -1.6525    1.4541 O   0  0  0  0  0  0  0  0  0  0  0  0
    3.5874    0.0995   -0.0462 C   0  0  0  0  0  0  0  0  0  0  0  0
    4.8340    0.6709   -0.3588 C   0  0  0  0  0  0  0  0  0  0  0  0
    5.9660   -0.0805   -0.3293 F   0  0  0  0  0  0  0  0  0  0  0  0
    4.9253    2.0269   -0.6795 C   0  0  0  0  0  0  0  0  0  0  0  0
    3.7788    2.8236   -0.6926 C   0  0  0  0  0  0  0  0  0  0  0  0
    2.5362    2.2686   -0.3799 C   0  0  0  0  0  0  0  0  0  0  0  0
    2.4264    0.9077   -0.0396 C   0  0  0  0  0  0  0  0  0  0  0  0
    1.1357    0.3259    0.2229 N   0  0  0  0  0  0  0  0  0  0  0  0
    0.0923    0.9972    0.9459 C   0  0  0  0  0  0  0  0  0  0  0  0
    0.3496    2.0400    1.6043 O   0  0  0  0  0  0  0  0  0  0  0  0
   -1.2547    0.3982    1.0094 C   0  0  0  0  0  0  0  0  0  0  0  0
   -1.3427   -0.9438    1.2155 N   0  0  0  0  0  0  0  0  0  0  0  0
   -2.5353   -1.5886    1.2917 C   0  0  0  0  0  0  0  0  0  0  0  0
   -2.5800   -3.0630    1.5640 C   0  0  0  0  0  0  0  0  0  0  0  0
   -1.6468   -3.9117    0.7140 C   0  0  0  0  0  0  0  0  0  0  0  0
   -3.1345   -3.8949    0.4190 C   0  0  0  0  0  0  0  0  0  0  0  0
   -3.7125   -0.8478    1.1865 C   0  0  0  0  0  0  0  0  0  0  0  0
   -3.6402    0.4888    0.9671 N   0  0  0  0  0  0  0  0  0  0  0  0
   -2.4507    1.1433    0.8549 C   0  0  0  0  0  0  0  0  0  0  0  0
   -2.4421    2.5580    0.5722 N   0  0  0  0  0  0  0  0  0  0  0  0
   -3.5971    3.2895    0.1323 C   0  0  0  0  0  0  0  0  0  0  0  0
   -4.5333    2.7407   -0.7575 C   0  0  0  0  0  0  0  0  0  0  0  0
   -5.5932    3.4787   -1.1669 N   0  0  0  0  0  0  0  0  0  0  0  0
   -5.7609    4.7567   -0.7405 C   0  0  0  0  0  0  0  0  0  0  0  0
   -4.8533    5.3193    0.0978 N   0  0  0  0  0  0  0  0  0  0  0  0
   -3.7780    4.6162    0.5347 C   0  0  0  0  0  0  0  0  0  0  0  0
    3.5259   -4.4293   -0.5281 H   0  0  0  0  0  0  0  0  0  0  0  0
    5.2761   -3.9682   -0.5648 H   0  0  0  0  0  0  0  0  0  0  0  0
    4.3280   -3.7508    0.9421 H   0  0  0  0  0  0  0  0  0  0  0  0
    2.8882   -1.6806   -2.3480 H   0  0  0  0  0  0  0  0  0  0  0  0
    4.6716   -1.3614   -2.3350 H   0  0  0  0  0  0  0  0  0  0  0  0
    4.0496   -3.0215   -2.6424 H   0  0  0  0  0  0  0  0  0  0  0  0
    5.8872    2.4622   -0.9189 H   0  0  0  0  0  0  0  0  0  0  0  0
    3.8529    3.8712   -0.9529 H   0  0  0  0  0  0  0  0  0  0  0  0
    1.6569    2.8957   -0.4326 H   0  0  0  0  0  0  0  0  0  0  0  0
    0.9556   -0.6481   -0.1100 H   0  0  0  0  0  0  0  0  0  0  0  0
   -2.7972   -3.4423    2.5812 H   0  0  0  0  0  0  0  0  0  0  0  0
   -1.2924   -4.8465    1.2001 H   0  0  0  0  0  0  0  0  0  0  0  0
   -1.0359   -3.3714   -0.0429 H   0  0  0  0  0  0  0  0  0  0  0  0
   -3.6675   -4.8153    0.7348 H   0  0  0  0  0  0  0  0  0  0  0  0
   -3.3965   -3.3433   -0.5092 H   0  0  0  0  0  0  0  0  0  0  0  0
   -4.6787   -1.3273    1.2719 H   0  0  0  0  0  0  0  0  0  0  0  0
   -1.5860    3.1211    0.7616 H   0  0  0  0  0  0  0  0  0  0  0  0
   -4.4101    1.7390   -1.1455 H   0  0  0  0  0  0  0  0  0  0  0  0
   -6.6106    5.3315   -1.0789 H   0  0  0  0  0  0  0  0  0  0  0  0
   -3.0681    5.0891    1.2005 H   0  0  0  0  0  0  0  0  0  0  0  0
  1  2  1  0
  2  3  1  0
  2  4  1  0
  4  5  2  0
  4  6  1  0
  6  7  2  0
  7  8  1  0
  7  9  1  0
  9 10  2  0
 10 11  1  0
 11 12  2  0
 12 13  1  0
 13 14  1  0
 14 15  2  0
 14 16  1  0
 16 17  2  0
 17 18  1  0
 18 19  1  0
 19 20  1  0
 20 21  1  0
 18 22  2  0
 22 23  1  0
 23 24  2  0
 24 25  1  0
 25 26  1  0
 26 27  2  0
 27 28  1  0
 28 29  2  0
 29 30  1  0
 30 31  2  0
 12  6  1  0
 24 16  1  0
 31 26  1  0
 21 19  1  0
  1 32  1  0
  1 33  1  0
  1 34  1  0
  3 35  1  0
  3 36  1  0
  3 37  1  0
  9 38  1  0
 10 39  1  0
 11 40  1  0
 13 41  1  0
 19 42  1  0
 20 43  1  0
 20 44  1  0
 21 45  1  0
 21 46  1  0
 22 47  1  0
 25 48  1  0
 27 49  1  0
 29 50  1  0
 31 51  1  0
M  END
$$$$

     RDKit          3D

 52 56  0  0  0  0  0  0  0  0999 V2000
   -2.2912    2.5973   -1.9048 C   0  0  0  0  0  0  0  0  0  0  0  0
   -3.4325    1.8926   -1.3275 N   0  0  0  0  0  0  0  0  0  0  0  0
   -4.6778    2.1152   -1.7143 N   0  0  0  0  0  0  0  0  0  0  0  0
   -5.4742    1.2283   -1.0872 C   0  0  0  0  0  0  0  0  0  0  0  0
   -4.7052    0.4043   -0.2862 C   0  0  0  0  0  0  0  0  0  0  0  0
   -5.1795   -0.6916    0.5813 C   0  0  0  0  0  0  0  0  0  0  0  0
   -4.5057   -1.0214    1.5928 O   0  0  0  0  0  0  0  0  0  0  0  0
   -6.3879   -1.3975    0.2929 N   0  0  0  0  0  0  0  0  0  0  0  0
   -7.4017   -1.4783   -0.7763 C   0  0  0  0  0  0  0  0  0  0  0  0
   -8.1420   -2.6400   -0.2016 C   0  0  0  0  0  0  0  0  0  0  0  0
   -9.4100   -2.2982    0.2411 F   0  0  0  0  0  0  0  0  0  0  0  0
   -7.1145   -2.5405    0.8755 C   0  0  0  0  0  0  0  0  0  0  0  0
   -3.4050    0.8598   -0.4526 C   0  0  0  0  0  0  0  0  0  0  0  0
   -2.1804    0.2032    0.0539 C   0  0  0  0  0  0  0  0  0  0  0  0
   -2.1005   -1.0542    0.0128 O   0  0  0  0  0  0  0  0  0  0  0  0
   -1.0842    0.9837    0.5587 N   0  0  0  0  0  0  0  0  0  0  0  0
    0.2287    0.4477    0.7817 C   0  0  0  0  0  0  0  0  0  0  0  0
    0.4243   -0.7638    1.4922 C   0  0  0  0  0  0  0  0  0  0  0  0
    1.7195   -1.2694    1.6954 C   0  0  0  0  0  0  0  0  0  0  0  0
    2.7837   -0.5329    1.1833 C   0  0  0  0  0  0  0  0  0  0  0  0
    4.0879   -0.8565    1.2419 N   0  0  0  0  0  0  0  0  0  0  0  0
    4.6485    0.1894    0.5733 C   0  0  0  0  0  0  0  0  0  0  0  0
    6.0613    0.2994    0.3178 N   0  0  0  0  0  0  0  0  0  0  0  0
    6.6075    1.5085   -0.3084 C   0  0  0  0  0  0  0  0  0  0  0  0
    7.8580    1.1544   -1.1189 C   0  0  0  0  0  0  0  0  0  0  0  0
    8.7811    0.4315   -0.3293 O   0  0  0  0  0  0  0  0  0  0  0  0
    8.2277   -0.8198    0.0325 C   0  0  0  0  0  0  0  0  0  0  0  0
    7.0050   -0.6368    0.9376 C   0  0  0  0  0  0  0  0  0  0  0  0
    3.7406    1.0956    0.1325 N   0  0  0  0  0  0  0  0  0  0  0  0
    2.5803    0.6174    0.5326 N   0  0  0  0  0  0  0  0  0  0  0  0
    1.3539    1.1523    0.3153 C   0  0  0  0  0  0  0  0  0  0  0  0
   -1.5514    1.8667   -2.2993 H   0  0  0  0  0  0  0  0  0  0  0  0
   -1.8158    3.2455   -1.1398 H   0  0  0  0  0  0  0  0  0  0  0  0
   -2.6280    3.2478   -2.7410 H   0  0  0  0  0  0  0  0  0  0  0  0
   -6.5452    1.2012   -1.2024 H   0  0  0  0  0  0  0  0  0  0  0  0
   -8.0226   -0.5564   -0.8131 H   0  0  0  0  0  0  0  0  0  0  0  0
   -6.9295   -1.7165   -1.7551 H   0  0  0  0  0  0  0  0  0  0  0  0
   -8.0898   -3.5702   -0.8098 H   0  0  0  0  0  0  0  0  0  0  0  0
   -6.4632   -3.4404    0.9229 H   0  0  0  0  0  0  0  0  0  0  0  0
   -7.5420   -2.2735    1.8687 H   0  0  0  0  0  0  0  0  0  0  0  0
   -1.2042    2.0160    0.6476 H   0  0  0  0  0  0  0  0  0  0  0  0
   -0.4185   -1.3049    1.9018 H   0  0  0  0  0  0  0  0  0  0  0  0
    1.8816   -2.1976    2.2304 H   0  0  0  0  0  0  0  0  0  0  0  0
    5.8652    1.9756   -0.9903 H   0  0  0  0  0  0  0  0  0  0  0  0
    6.8720    2.2436    0.4842 H   0  0  0  0  0  0  0  0  0  0  0  0
    7.5778    0.5850   -2.0343 H   0  0  0  0  0  0  0  0  0  0  0  0
    8.3424    2.0948   -1.4572 H   0  0  0  0  0  0  0  0  0  0  0  0
    8.9959   -1.3997    0.5879 H   0  0  0  0  0  0  0  0  0  0  0  0
    7.9561   -1.4138   -0.8714 H   0  0  0  0  0  0  0  0  0  0  0  0
    6.5339   -1.6314    1.0936 H   0  0  0  0  0  0  0  0  0  0  0  0
    7.3231   -0.2354    1.9237 H   0  0  0  0  0  0  0  0  0  0  0  0
    1.2463    2.0839   -0.2267 H   0  0  0  0  0  0  0  0  0  0  0  0
  1  2  1  0
  2  3  1  0
  3  4  2  0
  4  5  1  0
  5  6  1  0
  6  7  2  0
  6  8  1  0
  8  9  1  0
  9 10  1  0
 10 11  1  0
 10 12  1  0
  5 13  2  0
 13 14  1  0
 14 15  2  0
 14 16  1  0
 16 17  1  0
 17 18  1  0
 18 19  2  0
 19 20  1  0
 20 21  2  0
 21 22  1  0
 22 23  1  0
 23 24  1  0
 24 25  1  0
 25 26  1  0
 26 27  1  0
 27 28  1  0
 22 29  2  0
 29 30  1  0
 30 31  1  0
 13  2  1  0
 31 17  2  0
 12  8  1  0
 30 20  1  0
 28 23  1  0
  1 32  1  0
  1 33  1  0
  1 34  1  0
  4 35  1  0
  9 36  1  0
  9 37  1  0
 10 38  1  0
 12 39  1  0
 12 40  1  0
 16 41  1  0
 18 42  1  0
 19 43  1  0
 24 44  1  0
 24 45  1  0
 25 46  1  0
 25 47  1  0
 27 48  1  0
 27 49  1  0
 28 50  1  0
 28 51  1  0
 31 52  1  0
M  END
$$$$

     RDKit          3D

 58 61  0  0  0  0  0  0  0  0999 V2000
    3.2277    1.6198   -4.0563 C   0  0  0  0  0  0  0  0  0  0  0  0
    3.4713    0.4820   -3.0477 C   0  0  0  0  0  0  0  0  0  0  0  0
    4.9767    0.1720   -3.0023 C   0  0  0  0  0  0  0  0  0  0  0  0
    2.7920   -0.6734   -3.4786 O   0  0  0  0  0  0  0  0  0  0  0  0
    2.9694    0.9113   -1.6451 C   0  0  0  0  0  0  0  0  0  0  0  0
    3.0042   -0.1905   -0.6784 N   0  0  0  0  0  0  0  0  0  0  0  0
    2.5144   -0.0234    0.6572 C   0  0  0  0  0  0  0  0  0  0  0  0
    2.0238    1.0829    1.0131 O   0  0  0  0  0  0  0  0  0  0  0  0
    2.5638   -1.1441    1.6215 C   0  0  0  0  0  0  0  0  0  0  0  0
    3.7253   -1.9318    1.6988 C   0  0  0  0  0  0  0  0  0  0  0  0
    3.8305   -2.9476    2.6516 C   0  0  0  0  0  0  0  0  0  0  0  0
    2.7835   -3.1840    3.5429 C   0  0  0  0  0  0  0  0  0  0  0  0
    1.6188   -2.4159    3.4758 C   0  0  0  0  0  0  0  0  0  0  0  0
    0.6002   -2.6746    4.3354 F   0  0  0  0  0  0  0  0  0  0  0  0
    1.4881   -1.4080    2.5052 C   0  0  0  0  0  0  0  0  0  0  0  0
    0.2517   -0.6832    2.4169 N   0  0  0  0  0  0  0  0  0  0  0  0
   -0.5548   -0.6841    1.2276 C   0  0  0  0  0  0  0  0  0  0  0  0
   -0.2045   -1.3768    0.2319 O   0  0  0  0  0  0  0  0  0  0  0  0
   -1.7803    0.1422    1.1669 C   0  0  0  0  0  0  0  0  0  0  0  0
   -1.8494    1.2514    1.9519 N   0  0  0  0  0  0  0  0  0  0  0  0
   -2.9280    2.0781    1.9440 C   0  0  0  0  0  0  0  0  0  0  0  0
   -2.9566    3.3074    2.8064 C   0  0  0  0  0  0  0  0  0  0  0  0
   -3.7925    3.1455    4.0695 C   0  0  0  0  0  0  0  0  0  0  0  0
   -2.2759    3.1995    4.1671 C   0  0  0  0  0  0  0  0  0  0  0  0
   -3.9920    1.7951    1.0866 C   0  0  0  0  0  0  0  0  0  0  0  0
   -3.9385    0.6912    0.3000 N   0  0  0  0  0  0  0  0  0  0  0  0
   -2.8651   -0.1467    0.3065 C   0  0  0  0  0  0  0  0  0  0  0  0
   -2.9004   -1.3456   -0.4847 N   0  0  0  0  0  0  0  0  0  0  0  0
   -3.5553   -1.4375   -1.7635 C   0  0  0  0  0  0  0  0  0  0  0  0
   -3.7552   -0.3151   -2.5818 C   0  0  0  0  0  0  0  0  0  0  0  0
   -4.3576   -0.4545   -3.7925 N   0  0  0  0  0  0  0  0  0  0  0  0
   -4.7679   -1.6714   -4.2339 C   0  0  0  0  0  0  0  0  0  0  0  0
   -4.5663   -2.7749   -3.4691 N   0  0  0  0  0  0  0  0  0  0  0  0
   -3.9668   -2.6824   -2.2533 C   0  0  0  0  0  0  0  0  0  0  0  0
    3.7931    2.5324   -3.7645 H   0  0  0  0  0  0  0  0  0  0  0  0
    2.1493    1.8754   -4.1055 H   0  0  0  0  0  0  0  0  0  0  0  0
    3.5522    1.3084   -5.0729 H   0  0  0  0  0  0  0  0  0  0  0  0
    5.5467    1.0549   -2.6544 H   0  0  0  0  0  0  0  0  0  0  0  0
    5.1919   -0.6752   -2.3185 H   0  0  0  0  0  0  0  0  0  0  0  0
    5.3403   -0.1091   -4.0099 H   0  0  0  0  0  0  0  0  0  0  0  0
    1.8180   -0.4769   -3.4623 H   0  0  0  0  0  0  0  0  0  0  0  0
    3.5904    1.7497   -1.2632 H   0  0  0  0  0  0  0  0  0  0  0  0
    1.9209    1.2769   -1.7240 H   0  0  0  0  0  0  0  0  0  0  0  0
    3.3220   -1.1403   -0.9764 H   0  0  0  0  0  0  0  0  0  0  0  0
    4.5647   -1.7431    1.0405 H   0  0  0  0  0  0  0  0  0  0  0  0
    4.7317   -3.5447    2.7071 H   0  0  0  0  0  0  0  0  0  0  0  0
    2.8718   -3.9697    4.2827 H   0  0  0  0  0  0  0  0  0  0  0  0
   -0.1563   -0.2985    3.2999 H   0  0  0  0  0  0  0  0  0  0  0  0
   -2.9980    4.3179    2.3388 H   0  0  0  0  0  0  0  0  0  0  0  0
   -4.2936    4.0734    4.4142 H   0  0  0  0  0  0  0  0  0  0  0  0
   -4.2253    2.1315    4.2525 H   0  0  0  0  0  0  0  0  0  0  0  0
   -1.8822    4.1617    4.5558 H   0  0  0  0  0  0  0  0  0  0  0  0
   -1.8062    2.2236    4.4152 H   0  0  0  0  0  0  0  0  0  0  0  0
   -4.8599    2.4407    1.0486 H   0  0  0  0  0  0  0  0  0  0  0  0
   -2.5255   -2.2252   -0.0619 H   0  0  0  0  0  0  0  0  0  0  0  0
   -3.4175    0.6650   -2.2740 H   0  0  0  0  0  0  0  0  0  0  0  0
   -5.2462   -1.7633   -5.1987 H   0  0  0  0  0  0  0  0  0  0  0  0
   -3.8167   -3.5783   -1.6657 H   0  0  0  0  0  0  0  0  0  0  0  0
  1  2  1  0
  2  3  1  0
  2  4  1  0
  2  5  1  0
  5  6  1  0
  6  7  1  0
  7  8  2  0
  7  9  1  0
  9 10  2  0
 10 11  1  0
 11 12  2  0
 12 13  1  0
 13 14  1  0
 13 15  2  0
 15 16  1  0
 16 17  1  0
 17 18  2  0
 17 19  1  0
 19 20  2  0
 20 21  1  0
 21 22  1  0
 22 23  1  0
 23 24  1  0
 21 25  2  0
 25 26  1  0
 26 27  2  0
 27 28  1  0
 28 29  1  0
 29 30  2  0
 30 31  1  0
 31 32  2  0
 32 33  1  0
 33 34  2  0
 15  9  1  0
 27 19  1  0
 34 29  1  0
 24 22  1  0
  1 35  1  0
  1 36  1  0
  1 37  1  0
  3 38  1  0
  3 39  1  0
  3 40  1  0
  4 41  1  0
  5 42  1  0
  5 43  1  0
  6 44  1  0
 10 45  1  0
 11 46  1  0
 12 47  1  0
 16 48  1  0
 22 49  1  0
 23 50  1  0
 23 51  1  0
 24 52  1  0
 24 53  1  0
 25 54  1  0
 28 55  1  0
 30 56  1  0
 32 57  1  0
 34 58  1  0
M  END
$$$$

     RDKit          3D

 59 63  0  0  0  0  0  0  0  0999 V2000
    9.9500   -1.7791   -1.1093 C   0  0  0  0  0  0  0  0  0  0  0  0
    8.5640   -1.5240   -1.0410 O   0  0  0  0  0  0  0  0  0  0  0  0
    8.2521   -0.8256    0.1530 C   0  0  0  0  0  0  0  0  0  0  0  0
    8.2035    0.6836   -0.1240 C   0  0  0  0  0  0  0  0  0  0  0  0
    6.7406    1.0162   -0.3850 C   0  0  0  0  0  0  0  0  0  0  0  0
    5.9901   -0.1012    0.1531 N   0  0  0  0  0  0  0  0  0  0  0  0
    4.5619   -0.1130    0.2745 C   0  0  0  0  0  0  0  0  0  0  0  0
    3.8734   -1.1358    0.8436 N   0  0  0  0  0  0  0  0  0  0  0  0
    2.6121   -0.6801    0.7455 C   0  0  0  0  0  0  0  0  0  0  0  0
    1.4631   -1.3151    1.1991 C   0  0  0  0  0  0  0  0  0  0  0  0
    0.2388   -0.6506    1.0174 C   0  0  0  0  0  0  0  0  0  0  0  0
    0.1905    0.6130    0.3730 C   0  0  0  0  0  0  0  0  0  0  0  0
   -1.0463    1.3250    0.1913 N   0  0  0  0  0  0  0  0  0  0  0  0
   -2.3347    0.6963    0.1397 C   0  0  0  0  0  0  0  0  0  0  0  0
   -2.4337   -0.4992   -0.2436 O   0  0  0  0  0  0  0  0  0  0  0  0
   -3.5591    1.4519    0.4899 C   0  0  0  0  0  0  0  0  0  0  0  0
   -4.8324    1.2402   -0.0210 C   0  0  0  0  0  0  0  0  0  0  0  0
   -5.2455    0.3429   -1.1192 C   0  0  0  0  0  0  0  0  0  0  0  0
   -4.4482    0.1420   -2.0762 O   0  0  0  0  0  0  0  0  0  0  0  0
   -6.5338   -0.3014   -1.1170 N   0  0  0  0  0  0  0  0  0  0  0  0
   -7.2496   -0.5615   -2.3724 C   0  0  0  0  0  0  0  0  0  0  0  0
   -7.8977   -1.9484   -2.3149 C   0  0  0  0  0  0  0  0  0  0  0  0
   -8.6857   -2.0894   -1.1466 O   0  0  0  0  0  0  0  0  0  0  0  0
   -7.8563   -2.0314   -0.0003 C   0  0  0  0  0  0  0  0  0  0  0  0
   -7.2138   -0.6483    0.1361 C   0  0  0  0  0  0  0  0  0  0  0  0
   -5.6462    2.1210    0.6676 C   0  0  0  0  0  0  0  0  0  0  0  0
   -4.9055    2.8121    1.5543 N   0  0  0  0  0  0  0  0  0  0  0  0
   -3.6514    2.3985    1.4529 N   0  0  0  0  0  0  0  0  0  0  0  0
   -2.5834    2.9097    2.3074 C   0  0  0  0  0  0  0  0  0  0  0  0
    1.3998    1.2035   -0.0455 C   0  0  0  0  0  0  0  0  0  0  0  0
    2.5536    0.5216    0.1622 N   0  0  0  0  0  0  0  0  0  0  0  0
    3.7745    0.9087   -0.1455 N   0  0  0  0  0  0  0  0  0  0  0  0
    6.8350   -1.1949    0.5930 C   0  0  0  0  0  0  0  0  0  0  0  0
   10.5462   -0.8471   -0.9826 H   0  0  0  0  0  0  0  0  0  0  0  0
   10.2457   -2.5357   -0.3493 H   0  0  0  0  0  0  0  0  0  0  0  0
   10.1845   -2.1952   -2.1099 H   0  0  0  0  0  0  0  0  0  0  0  0
    8.9568   -1.0516    0.9912 H   0  0  0  0  0  0  0  0  0  0  0  0
    8.5525    1.2327    0.7794 H   0  0  0  0  0  0  0  0  0  0  0  0
    8.8415    0.9752   -0.9872 H   0  0  0  0  0  0  0  0  0  0  0  0
    6.4576    1.9599    0.1294 H   0  0  0  0  0  0  0  0  0  0  0  0
    6.5470    1.1038   -1.4758 H   0  0  0  0  0  0  0  0  0  0  0  0
    1.5101   -2.2789    1.6889 H   0  0  0  0  0  0  0  0  0  0  0  0
   -0.6589   -1.1132    1.4033 H   0  0  0  0  0  0  0  0  0  0  0  0
   -1.0030    2.3543    0.0173 H   0  0  0  0  0  0  0  0  0  0  0  0
   -8.0361    0.2114   -2.5089 H   0  0  0  0  0  0  0  0  0  0  0  0
   -6.5659   -0.5168   -3.2457 H   0  0  0  0  0  0  0  0  0  0  0  0
   -7.1186   -2.7428   -2.3738 H   0  0  0  0  0  0  0  0  0  0  0  0
   -8.5549   -2.0750   -3.1995 H   0  0  0  0  0  0  0  0  0  0  0  0
   -8.4765   -2.2321    0.8975 H   0  0  0  0  0  0  0  0  0  0  0  0
   -7.0705   -2.8204   -0.0336 H   0  0  0  0  0  0  0  0  0  0  0  0
   -6.4926   -0.6745    0.9834 H   0  0  0  0  0  0  0  0  0  0  0  0
   -8.0005    0.1076    0.3513 H   0  0  0  0  0  0  0  0  0  0  0  0
   -6.7082    2.2687    0.5198 H   0  0  0  0  0  0  0  0  0  0  0  0
   -3.0170    3.3895    3.2108 H   0  0  0  0  0  0  0  0  0  0  0  0
   -1.9240    2.0803    2.6408 H   0  0  0  0  0  0  0  0  0  0  0  0
   -1.9913    3.6678    1.7540 H   0  0  0  0  0  0  0  0  0  0  0  0
    1.4126    2.1764   -0.5208 H   0  0  0  0  0  0  0  0  0  0  0  0
    6.7787   -1.2804    1.6994 H   0  0  0  0  0  0  0  0  0  0  0  0
    6.5053   -2.1507    0.1320 H   0  0  0  0  0  0  0  0  0  0  0  0
  1  2  1  0
  2  3  1  0
  3  4  1  0
  4  5  1  0
  5  6  1  0
  6  7  1  0
  7  8  1  0
  8  9  2  0
  9 10  1  0
 10 11  2  0
 11 12  1  0
 12 13  1  0
 13 14  1  0
 14 15  2  0
 14 16  1  0
 16 17  2  0
 17 18  1  0
 18 19  2  0
 18 20  1  0
 20 21  1  0
 21 22  1  0
 22 23  1  0
 23 24  1  0
 24 25  1  0
 17 26  1  0
 26 27  2  0
 27 28  1  0
 28 29  1  0
 12 30  2  0
 30 31  1  0
 31 32  1  0
  6 33  1  0
 33  3  1  0
 32  7  2  0
 31  9  1  0
 28 16  1  0
 25 20  1  0
  1 34  1  0
  1 35  1  0
  1 36  1  0
  3 37  1  0
  4 38  1  0
  4 39  1  0
  5 40  1  0
  5 41  1  0
 10 42  1  0
 11 43  1  0
 13 44  1  0
 21 45  1  0
 21 46  1  0
 22 47  1  0
 22 48  1  0
 24 49  1  0
 24 50  1  0
 25 51  1  0
 25 52  1  0
 26 53  1  0
 29 54  1  0
 29 55  1  0
 29 56  1  0
 30 57  1  0
 33 58  1  0
 33 59  1  0
M  END
$$$$

     RDKit          3D

 69 73  0  0  0  0  0  0  0  0999 V2000
   10.1349   -0.4959   -0.1483 C   0  0  0  0  0  0  0  0  0  0  0  0
    9.6487    0.8681    0.3570 C   0  0  0  0  0  0  0  0  0  0  0  0
    9.8407    1.0566    1.8659 C   0  0  0  0  0  0  0  0  0  0  0  0
    8.2693    1.1625   -0.0621 N   0  0  0  0  0  0  0  0  0  0  0  0
    7.0900    0.3480    0.0994 C   0  0  0  0  0  0  0  0  0  0  0  0
    7.0261   -0.7523    0.9759 C   0  0  0  0  0  0  0  0  0  0  0  0
    5.8444   -1.4890    1.0816 C   0  0  0  0  0  0  0  0  0  0  0  0
    4.7264   -1.1291    0.3238 C   0  0  0  0  0  0  0  0  0  0  0  0
    3.5269   -1.8473    0.4059 C   0  0  0  0  0  0  0  0  0  0  0  0
    2.4222   -1.4582   -0.3590 C   0  0  0  0  0  0  0  0  0  0  0  0
    2.4997   -0.3402   -1.2099 C   0  0  0  0  0  0  0  0  0  0  0  0
    1.3525    0.1043   -2.0337 C   0  0  0  0  0  0  0  0  0  0  0  0
    1.5458    0.3597   -3.2529 O   0  0  0  0  0  0  0  0  0  0  0  0
    0.0699    0.4024   -1.4534 N   0  0  0  0  0  0  0  0  0  0  0  0
   -0.5559    1.6956   -1.7543 C   0  0  0  0  0  0  0  0  0  0  0  0
   -1.3978    2.1464   -0.5585 C   0  0  0  0  0  0  0  0  0  0  0  0
   -2.5270    1.1245   -0.2020 C   0  0  0  0  0  0  0  0  0  0  0  0
   -2.1813   -0.3104   -0.7135 C   0  0  0  0  0  0  0  0  0  0  0  0
   -0.6775   -0.6080   -0.6930 C   0  0  0  0  0  0  0  0  0  0  0  0
   -3.8680    1.5925   -0.8719 C   0  0  0  0  0  0  0  0  0  0  0  0
   -5.0344    0.8653   -0.2774 C   0  0  0  0  0  0  0  0  0  0  0  0
   -6.2157    0.4311   -0.8303 C   0  0  0  0  0  0  0  0  0  0  0  0
   -6.9111   -0.2188    0.1372 N   0  0  0  0  0  0  0  0  0  0  0  0
   -8.1907   -0.9330   -0.0458 C   0  0  0  0  0  0  0  0  0  0  0  0
   -8.7802   -1.3422    1.3215 C   0  0  0  0  0  0  0  0  0  0  0  0
   -9.2066   -0.0210   -0.7630 C   0  0  0  0  0  0  0  0  0  0  0  0
   -7.9455   -2.1978   -0.8869 C   0  0  0  0  0  0  0  0  0  0  0  0
   -6.1995   -0.2367    1.2615 N   0  0  0  0  0  0  0  0  0  0  0  0
   -5.0643    0.4383    1.0129 C   0  0  0  0  0  0  0  0  0  0  0  0
   -3.8992    0.5819    1.8735 C   0  0  0  0  0  0  0  0  0  0  0  0
   -3.9464    0.2814    3.0954 O   0  0  0  0  0  0  0  0  0  0  0  0
   -2.6841    1.0658    1.2749 N   0  0  0  0  0  0  0  0  0  0  0  0
    3.7131    0.3644   -1.3037 C   0  0  0  0  0  0  0  0  0  0  0  0
    4.8187   -0.0204   -0.5384 C   0  0  0  0  0  0  0  0  0  0  0  0
    5.9822    0.6773   -0.6218 N   0  0  0  0  0  0  0  0  0  0  0  0
    9.7126   -1.3371    0.4332 H   0  0  0  0  0  0  0  0  0  0  0  0
   11.2413   -0.5525   -0.0639 H   0  0  0  0  0  0  0  0  0  0  0  0
    9.8637   -0.6221   -1.2179 H   0  0  0  0  0  0  0  0  0  0  0  0
   10.3073    1.6247   -0.1277 H   0  0  0  0  0  0  0  0  0  0  0  0
    9.2784    0.3173    2.4643 H   0  0  0  0  0  0  0  0  0  0  0  0
   10.9173    0.9551    2.1210 H   0  0  0  0  0  0  0  0  0  0  0  0
    9.5106    2.0747    2.1608 H   0  0  0  0  0  0  0  0  0  0  0  0
    8.1492    2.0266   -0.6389 H   0  0  0  0  0  0  0  0  0  0  0  0
    7.8565   -1.0528    1.5860 H   0  0  0  0  0  0  0  0  0  0  0  0
    5.8032   -2.3361    1.7563 H   0  0  0  0  0  0  0  0  0  0  0  0
    3.4449   -2.7114    1.0551 H   0  0  0  0  0  0  0  0  0  0  0  0
    1.5275   -2.0582   -0.3008 H   0  0  0  0  0  0  0  0  0  0  0  0
   -1.1910    1.6035   -2.6613 H   0  0  0  0  0  0  0  0  0  0  0  0
    0.2240    2.4645   -1.9503 H   0  0  0  0  0  0  0  0  0  0  0  0
   -1.8086    3.1585   -0.7635 H   0  0  0  0  0  0  0  0  0  0  0  0
   -0.7014    2.2688    0.2980 H   0  0  0  0  0  0  0  0  0  0  0  0
   -2.7111   -1.0792   -0.1105 H   0  0  0  0  0  0  0  0  0  0  0  0
   -2.5273   -0.4426   -1.7621 H   0  0  0  0  0  0  0  0  0  0  0  0
   -0.3123   -0.6293    0.3562 H   0  0  0  0  0  0  0  0  0  0  0  0
   -0.5302   -1.6081   -1.1549 H   0  0  0  0  0  0  0  0  0  0  0  0
   -3.8457    1.4540   -1.9747 H   0  0  0  0  0  0  0  0  0  0  0  0
   -4.0331    2.6734   -0.6737 H   0  0  0  0  0  0  0  0  0  0  0  0
   -6.5254    0.5492   -1.8599 H   0  0  0  0  0  0  0  0  0  0  0  0
   -9.7535   -1.8639    1.1925 H   0  0  0  0  0  0  0  0  0  0  0  0
   -8.0898   -2.0290    1.8589 H   0  0  0  0  0  0  0  0  0  0  0  0
   -8.9450   -0.4440    1.9556 H   0  0  0  0  0  0  0  0  0  0  0  0
  -10.1967   -0.5208   -0.8419 H   0  0  0  0  0  0  0  0  0  0  0  0
   -8.8699    0.2234   -1.7926 H   0  0  0  0  0  0  0  0  0  0  0  0
   -9.3338    0.9288   -0.2002 H   0  0  0  0  0  0  0  0  0  0  0  0
   -8.8922   -2.7619   -1.0364 H   0  0  0  0  0  0  0  0  0  0  0  0
   -7.5380   -1.9307   -1.8854 H   0  0  0  0  0  0  0  0  0  0  0  0
   -7.2120   -2.8621   -0.3802 H   0  0  0  0  0  0  0  0  0  0  0  0
   -1.8402    1.1297    1.8871 H   0  0  0  0  0  0  0  0  0  0  0  0
    3.7943    1.2241   -1.9601 H   0  0  0  0  0  0  0  0  0  0  0  0
  1  2  1  0
  2  3  1  0
  2  4  1  0
  4  5  1  0
  5  6  2  0
  6  7  1  0
  7  8  2  0
  8  9  1  0
  9 10  2  0
 10 11  1  0
 11 12  1  0
 12 13  2  0
 12 14  1  0
 14 15  1  0
 15 16  1  0
 16 17  1  0
 17 18  1  0
 18 19  1  0
 17 20  1  0
 20 21  1  0
 21 22  2  0
 22 23  1  0
 23 24  1  0
 24 25  1  0
 24 26  1  0
 24 27  1  0
 23 28  1  0
 28 29  2  0
 29 30  1  0
 30 31  2  0
 30 32  1  0
 11 33  2  0
 33 34  1  0
 34 35  2  0
 35  5  1  0
 34  8  1  0
 19 14  1  0
 29 21  1  0
 32 17  1  0
  1 36  1  0
  1 37  1  0
  1 38  1  0
  2 39  1  0
  3 40  1  0
  3 41  1  0
  3 42  1  0
  4 43  1  0
  6 44  1  0
  7 45  1  0
  9 46  1  0
 10 47  1  0
 15 48  1  0
 15 49  1  0
 16 50  1  0
 16 51  1  0
 18 52  1  0
 18 53  1  0
 19 54  1  0
 19 55  1  0
 20 56  1  0
 20 57  1  0
 22 58  1  0
 25 59  1  0
 25 60  1  0
 25 61  1  0
 26 62  1  0
 26 63  1  0
 26 64  1  0
 27 65  1  0
 27 66  1  0
 27 67  1  0
 32 68  1  0
 33 69  1  0
M  END
$$$$

     RDKit          3D

 53 55  0  0  0  0  0  0  0  0999 V2000
   -3.4038   -5.0920   -0.7103 C   0  0  0  0  0  0  0  0  0  0  0  0
   -3.5169   -3.7639   -1.3002 N   0  0  0  0  0  0  0  0  0  0  0  0
   -3.3591   -2.5749   -0.5147 C   0  0  0  0  0  0  0  0  0  0  0  0
   -2.9976   -2.6611    0.6894 O   0  0  0  0  0  0  0  0  0  0  0  0
   -3.6158   -1.2446   -1.1036 C   0  0  0  0  0  0  0  0  0  0  0  0
   -2.8492   -0.1031   -0.9373 C   0  0  0  0  0  0  0  0  0  0  0  0
   -1.6309    0.0111   -0.1800 N   0  0  0  0  0  0  0  0  0  0  0  0
   -0.7087    1.1121   -0.2764 C   0  0  0  0  0  0  0  0  0  0  0  0
   -0.8493    1.9783   -1.1809 O   0  0  0  0  0  0  0  0  0  0  0  0
    0.4535    1.1893    0.6413 C   0  0  0  0  0  0  0  0  0  0  0  0
    0.8889    0.0443    1.2335 N   0  0  0  0  0  0  0  0  0  0  0  0
    1.9749    0.0258    2.0489 C   0  0  0  0  0  0  0  0  0  0  0  0
    2.4421   -1.2672    2.6472 C   0  0  0  0  0  0  0  0  0  0  0  0
    3.6013   -1.8877    1.8402 C   0  0  0  0  0  0  0  0  0  0  0  0
    4.1755   -3.0977    2.5875 C   0  0  0  0  0  0  0  0  0  0  0  0
    3.1528   -2.3050    0.4312 C   0  0  0  0  0  0  0  0  0  0  0  0
    2.6628    1.1721    2.2827 N   0  0  0  0  0  0  0  0  0  0  0  0
    2.2724    2.3460    1.7263 C   0  0  0  0  0  0  0  0  0  0  0  0
    1.1540    2.3923    0.8823 C   0  0  0  0  0  0  0  0  0  0  0  0
    0.6856    3.6528    0.3735 N   0  0  0  0  0  0  0  0  0  0  0  0
    1.5470    4.6626   -0.1802 C   0  0  0  0  0  0  0  0  0  0  0  0
    1.1268    5.9967   -0.2236 C   0  0  0  0  0  0  0  0  0  0  0  0
    1.9311    6.9480   -0.7648 N   0  0  0  0  0  0  0  0  0  0  0  0
    3.1448    6.6250   -1.2811 C   0  0  0  0  0  0  0  0  0  0  0  0
    3.5678    5.3345   -1.2692 N   0  0  0  0  0  0  0  0  0  0  0  0
    2.7972    4.3513   -0.7361 C   0  0  0  0  0  0  0  0  0  0  0  0
   -3.5051    0.8866   -1.6513 C   0  0  0  0  0  0  0  0  0  0  0  0
   -4.6088    0.3595   -2.2168 N   0  0  0  0  0  0  0  0  0  0  0  0
   -4.6746   -0.9206   -1.8811 N   0  0  0  0  0  0  0  0  0  0  0  0
   -5.7624   -1.7944   -2.3092 C   0  0  0  0  0  0  0  0  0  0  0  0
   -4.1744   -5.2193    0.0790 H   0  0  0  0  0  0  0  0  0  0  0  0
   -2.3933   -5.2240   -0.2688 H   0  0  0  0  0  0  0  0  0  0  0  0
   -3.5581   -5.8667   -1.4911 H   0  0  0  0  0  0  0  0  0  0  0  0
   -3.6856   -3.6869   -2.3278 H   0  0  0  0  0  0  0  0  0  0  0  0
   -1.3865   -0.7730    0.4628 H   0  0  0  0  0  0  0  0  0  0  0  0
    2.7790   -1.0655    3.6874 H   0  0  0  0  0  0  0  0  0  0  0  0
    1.5916   -1.9819    2.7084 H   0  0  0  0  0  0  0  0  0  0  0  0
    4.4143   -1.1342    1.7407 H   0  0  0  0  0  0  0  0  0  0  0  0
    4.5418   -2.7911    3.5905 H   0  0  0  0  0  0  0  0  0  0  0  0
    3.4008   -3.8860    2.7126 H   0  0  0  0  0  0  0  0  0  0  0  0
    5.0348   -3.5238    2.0261 H   0  0  0  0  0  0  0  0  0  0  0  0
    2.8360   -1.4167   -0.1547 H   0  0  0  0  0  0  0  0  0  0  0  0
    2.3066   -3.0236    0.4844 H   0  0  0  0  0  0  0  0  0  0  0  0
    3.9950   -2.7835   -0.1141 H   0  0  0  0  0  0  0  0  0  0  0  0
    2.8221    3.2486    1.9587 H   0  0  0  0  0  0  0  0  0  0  0  0
   -0.3342    3.8657    0.4607 H   0  0  0  0  0  0  0  0  0  0  0  0
    0.1635    6.2810    0.1797 H   0  0  0  0  0  0  0  0  0  0  0  0
    3.7722    7.3950   -1.7083 H   0  0  0  0  0  0  0  0  0  0  0  0
    3.1551    3.3309   -0.7613 H   0  0  0  0  0  0  0  0  0  0  0  0
   -3.2270    1.9257   -1.7449 H   0  0  0  0  0  0  0  0  0  0  0  0
   -5.4623   -2.3448   -3.2245 H   0  0  0  0  0  0  0  0  0  0  0  0
   -6.6656   -1.1896   -2.5381 H   0  0  0  0  0  0  0  0  0  0  0  0
   -6.0216   -2.5127   -1.5036 H   0  0  0  0  0  0  0  0  0  0  0  0
  1  2  1  0
  2  3  1  0
  3  4  2  0
  3  5  1  0
  5  6  2  0
  6  7  1  0
  7  8  1  0
  8  9  2  0
  8 10  1  0
 10 11  2  0
 11 12  1  0
 12 13  1  0
 13 14  1  0
 14 15  1  0
 14 16  1  0
 12 17  2  0
 17 18  1  0
 18 19  2  0
 19 20  1  0
 20 21  1  0
 21 22  2  0
 22 23  1  0
 23 24  2  0
 24 25  1  0
 25 26  2  0
  6 27  1  0
 27 28  2  0
 28 29  1  0
 29 30  1  0
 29  5  1  0
 19 10  1  0
 26 21  1  0
  1 31  1  0
  1 32  1  0
  1 33  1  0
  2 34  1  0
  7 35  1  0
 13 36  1  0
 13 37  1  0
 14 38  1  0
 15 39  1  0
 15 40  1  0
 15 41  1  0
 16 42  1  0
 16 43  1  0
 16 44  1  0
 18 45  1  0
 20 46  1  0
 22 47  1  0
 24 48  1  0
 26 49  1  0
 27 50  1  0
 30 51  1  0
 30 52  1  0
 30 53  1  0
M  END
$$$$

     RDKit          3D

 51 54  0  0  0  0  0  0  0  0999 V2000
    3.6580    2.1181   -2.4323 C   0  0  0  0  0  0  0  0  0  0  0  0
    3.6572    1.1692   -1.3131 N   0  0  0  0  0  0  0  0  0  0  0  0
    3.5627   -0.2709   -1.5660 C   0  0  0  0  0  0  0  0  0  0  0  0
    3.7029    1.6725    0.0403 C   0  0  0  0  0  0  0  0  0  0  0  0
    3.7204    2.9188    0.2575 O   0  0  0  0  0  0  0  0  0  0  0  0
    3.6984    0.7617    1.1975 C   0  0  0  0  0  0  0  0  0  0  0  0
    4.9168    0.4364    1.8122 C   0  0  0  0  0  0  0  0  0  0  0  0
    4.9463   -0.4450    2.8938 C   0  0  0  0  0  0  0  0  0  0  0  0
    3.7578   -0.9986    3.3782 C   0  0  0  0  0  0  0  0  0  0  0  0
    3.7904   -1.8391    4.4418 F   0  0  0  0  0  0  0  0  0  0  0  0
    2.5348   -0.6781    2.7769 C   0  0  0  0  0  0  0  0  0  0  0  0
    1.3883   -1.1877    3.2956 F   0  0  0  0  0  0  0  0  0  0  0  0
    2.4948    0.1942    1.6724 C   0  0  0  0  0  0  0  0  0  0  0  0
    1.2402    0.5456    1.0655 N   0  0  0  0  0  0  0  0  0  0  0  0
    0.2632   -0.4287    0.6676 C   0  0  0  0  0  0  0  0  0  0  0  0
    0.5571   -1.6556    0.6796 O   0  0  0  0  0  0  0  0  0  0  0  0
   -1.0902    0.0107    0.2647 C   0  0  0  0  0  0  0  0  0  0  0  0
   -1.5677    1.1775    0.7764 N   0  0  0  0  0  0  0  0  0  0  0  0
   -2.8184    1.6377    0.5150 C   0  0  0  0  0  0  0  0  0  0  0  0
   -3.2323    2.9459    1.1564 C   0  0  0  0  0  0  0  0  0  0  0  0
   -4.6863    3.0784    1.5872 C   0  0  0  0  0  0  0  0  0  0  0  0
   -4.1778    3.8450    0.3727 C   0  0  0  0  0  0  0  0  0  0  0  0
   -3.6490    0.8691   -0.3186 C   0  0  0  0  0  0  0  0  0  0  0  0
   -3.1784   -0.2877   -0.8481 N   0  0  0  0  0  0  0  0  0  0  0  0
   -1.9261   -0.7479   -0.5840 C   0  0  0  0  0  0  0  0  0  0  0  0
   -1.4538   -1.9312   -1.2504 N   0  0  0  0  0  0  0  0  0  0  0  0
   -2.3145   -3.0106   -1.6532 C   0  0  0  0  0  0  0  0  0  0  0  0
   -3.4889   -3.3251   -0.9524 C   0  0  0  0  0  0  0  0  0  0  0  0
   -4.2637   -4.3661   -1.3561 N   0  0  0  0  0  0  0  0  0  0  0  0
   -3.9128   -5.1235   -2.4282 C   0  0  0  0  0  0  0  0  0  0  0  0
   -2.7705   -4.8508   -3.1104 N   0  0  0  0  0  0  0  0  0  0  0  0
   -1.9681   -3.8179   -2.7430 C   0  0  0  0  0  0  0  0  0  0  0  0
    3.6549    1.5978   -3.4160 H   0  0  0  0  0  0  0  0  0  0  0  0
    4.5655    2.7600   -2.3824 H   0  0  0  0  0  0  0  0  0  0  0  0
    2.7490    2.7569   -2.3766 H   0  0  0  0  0  0  0  0  0  0  0  0
    4.3959   -0.8017   -1.0601 H   0  0  0  0  0  0  0  0  0  0  0  0
    3.6205   -0.5010   -2.6490 H   0  0  0  0  0  0  0  0  0  0  0  0
    2.5956   -0.6536   -1.1826 H   0  0  0  0  0  0  0  0  0  0  0  0
    5.8449    0.8584    1.4448 H   0  0  0  0  0  0  0  0  0  0  0  0
    5.8906   -0.6931    3.3627 H   0  0  0  0  0  0  0  0  0  0  0  0
    1.0887    1.5393    0.7827 H   0  0  0  0  0  0  0  0  0  0  0  0
   -2.5046    3.4837    1.8016 H   0  0  0  0  0  0  0  0  0  0  0  0
   -4.8408    3.7147    2.4838 H   0  0  0  0  0  0  0  0  0  0  0  0
   -5.3621    2.2315    1.3499 H   0  0  0  0  0  0  0  0  0  0  0  0
   -4.0365    4.9301    0.5580 H   0  0  0  0  0  0  0  0  0  0  0  0
   -4.5470    3.4629   -0.6005 H   0  0  0  0  0  0  0  0  0  0  0  0
   -4.6541    1.1774   -0.5630 H   0  0  0  0  0  0  0  0  0  0  0  0
   -0.4568   -1.9576   -1.5665 H   0  0  0  0  0  0  0  0  0  0  0  0
   -3.7844   -2.7576   -0.0797 H   0  0  0  0  0  0  0  0  0  0  0  0
   -4.5429   -5.9468   -2.7370 H   0  0  0  0  0  0  0  0  0  0  0  0
   -1.0675   -3.6174   -3.3079 H   0  0  0  0  0  0  0  0  0  0  0  0
  1  2  1  0
  2  3  1  0
  2  4  1  0
  4  5  2  0
  4  6  1  0
  6  7  2  0
  7  8  1  0
  8  9  2  0
  9 10  1  0
  9 11  1  0
 11 12  1  0
 11 13  2  0
 13 14  1  0
 14 15  1  0
 15 16  2  0
 15 17  1  0
 17 18  2  0
 18 19  1  0
 19 20  1  0
 20 21  1  0
 21 22  1  0
 19 23  2  0
 23 24  1  0
 24 25  2  0
 25 26  1  0
 26 27  1  0
 27 28  2  0
 28 29  1  0
 29 30  2  0
 30 31  1  0
 31 32  2  0
 13  6  1  0
 25 17  1  0
 32 27  1  0
 22 20  1  0
  1 33  1  0
  1 34  1  0
  1 35  1  0
  3 36  1  0
  3 37  1  0
  3 38  1  0
  7 39  1  0
  8 40  1  0
 14 41  1  0
 20 42  1  0
 21 43  1  0
 21 44  1  0
 22 45  1  0
 22 46  1  0
 23 47  1  0
 26 48  1  0
 28 49  1  0
 30 50  1  0
 32 51  1  0
M  END
$$$$

     RDKit          3D

 52 56  0  0  0  0  0  0  0  0999 V2000
   -2.8692    4.6984   -2.0803 C   0  0  0  0  0  0  0  0  0  0  0  0
   -3.5394    3.6617   -1.3023 N   0  0  0  0  0  0  0  0  0  0  0  0
   -4.7821    3.7764   -0.8599 N   0  0  0  0  0  0  0  0  0  0  0  0
   -5.0707    2.6711   -0.1461 C   0  0  0  0  0  0  0  0  0  0  0  0
   -3.9764    1.8260   -0.1432 C   0  0  0  0  0  0  0  0  0  0  0  0
   -3.9271    0.4871    0.4751 C   0  0  0  0  0  0  0  0  0  0  0  0
   -4.5375    0.3039    1.5627 O   0  0  0  0  0  0  0  0  0  0  0  0
   -3.2416   -0.6155   -0.1521 N   0  0  0  0  0  0  0  0  0  0  0  0
   -3.1604   -0.7461   -1.6103 C   0  0  0  0  0  0  0  0  0  0  0  0
   -3.5588   -2.1704   -2.0113 C   0  0  0  0  0  0  0  0  0  0  0  0
   -2.7965   -3.1277   -1.2981 O   0  0  0  0  0  0  0  0  0  0  0  0
   -3.0856   -3.0421    0.0858 C   0  0  0  0  0  0  0  0  0  0  0  0
   -2.6450   -1.6878    0.6488 C   0  0  0  0  0  0  0  0  0  0  0  0
   -3.0075    2.4939   -0.8786 C   0  0  0  0  0  0  0  0  0  0  0  0
   -1.6043    2.0869   -1.0915 C   0  0  0  0  0  0  0  0  0  0  0  0
   -1.0922    2.2344   -2.2332 O   0  0  0  0  0  0  0  0  0  0  0  0
   -0.8378    1.5200   -0.0146 N   0  0  0  0  0  0  0  0  0  0  0  0
    0.5709    1.2372   -0.0810 C   0  0  0  0  0  0  0  0  0  0  0  0
    1.4637    2.0443   -0.8330 C   0  0  0  0  0  0  0  0  0  0  0  0
    2.8383    1.7558   -0.8603 C   0  0  0  0  0  0  0  0  0  0  0  0
    3.2814    0.6705   -0.1126 C   0  0  0  0  0  0  0  0  0  0  0  0
    4.5484    0.2350    0.0020 N   0  0  0  0  0  0  0  0  0  0  0  0
    4.3942   -0.8190    0.8494 C   0  0  0  0  0  0  0  0  0  0  0  0
    5.5147   -1.6663    1.3095 C   0  0  0  0  0  0  0  0  0  0  0  0
    5.2906   -2.7409    2.1854 C   0  0  0  0  0  0  0  0  0  0  0  0
    6.3591   -3.5322    2.6110 C   0  0  0  0  0  0  0  0  0  0  0  0
    7.6468   -3.2441    2.1577 C   0  0  0  0  0  0  0  0  0  0  0  0
    7.8524   -2.2019    1.3103 N   0  0  0  0  0  0  0  0  0  0  0  0
    6.8291   -1.4157    0.8806 C   0  0  0  0  0  0  0  0  0  0  0  0
    3.1062   -1.0105    1.2296 N   0  0  0  0  0  0  0  0  0  0  0  0
    2.4323   -0.0629    0.6108 N   0  0  0  0  0  0  0  0  0  0  0  0
    1.0988    0.1714    0.6734 C   0  0  0  0  0  0  0  0  0  0  0  0
   -3.5449    5.5683   -2.2236 H   0  0  0  0  0  0  0  0  0  0  0  0
   -1.9570    5.0390   -1.5465 H   0  0  0  0  0  0  0  0  0  0  0  0
   -2.5901    4.2992   -3.0776 H   0  0  0  0  0  0  0  0  0  0  0  0
   -6.0273    2.4836    0.3234 H   0  0  0  0  0  0  0  0  0  0  0  0
   -2.1171   -0.5534   -1.9396 H   0  0  0  0  0  0  0  0  0  0  0  0
   -3.8374   -0.0266   -2.1191 H   0  0  0  0  0  0  0  0  0  0  0  0
   -3.3653   -2.3021   -3.0967 H   0  0  0  0  0  0  0  0  0  0  0  0
   -4.6499   -2.3281   -1.8514 H   0  0  0  0  0  0  0  0  0  0  0  0
   -2.5296   -3.8454    0.6135 H   0  0  0  0  0  0  0  0  0  0  0  0
   -4.1696   -3.2102    0.2805 H   0  0  0  0  0  0  0  0  0  0  0  0
   -1.5394   -1.6116    0.5889 H   0  0  0  0  0  0  0  0  0  0  0  0
   -2.9406   -1.6160    1.7175 H   0  0  0  0  0  0  0  0  0  0  0  0
   -1.3370    1.2629    0.8659 H   0  0  0  0  0  0  0  0  0  0  0  0
    1.1093    2.9124   -1.3709 H   0  0  0  0  0  0  0  0  0  0  0  0
    3.5278    2.3647   -1.4307 H   0  0  0  0  0  0  0  0  0  0  0  0
    4.2934   -2.9692    2.5403 H   0  0  0  0  0  0  0  0  0  0  0  0
    6.1904   -4.3613    3.2860 H   0  0  0  0  0  0  0  0  0  0  0  0
    8.4838   -3.8493    2.4796 H   0  0  0  0  0  0  0  0  0  0  0  0
    7.0446   -0.5976    0.2058 H   0  0  0  0  0  0  0  0  0  0  0  0
    0.4613   -0.4504    1.2883 H   0  0  0  0  0  0  0  0  0  0  0  0
  1  2  1  0
  2  3  1  0
  3  4  2  0
  4  5  1  0
  5  6  1  0
  6  7  2  0
  6  8  1  0
  8  9  1  0
  9 10  1  0
 10 11  1  0
 11 12  1  0
 12 13  1  0
  5 14  2  0
 14 15  1  0
 15 16  2  0
 15 17  1  0
 17 18  1  0
 18 19  1  0
 19 20  2  0
 20 21  1  0
 21 22  2  0
 22 23  1  0
 23 24  1  0
 24 25  2  0
 25 26  1  0
 26 27  2  0
 27 28  1  0
 28 29  2  0
 23 30  2  0
 30 31  1  0
 31 32  1  0
 14  2  1  0
 32 18  2  0
 13  8  1  0
 31 21  1  0
 29 24  1  0
  1 33  1  0
  1 34  1  0
  1 35  1  0
  4 36  1  0
  9 37  1  0
  9 38  1  0
 10 39  1  0
 10 40  1  0
 12 41  1  0
 12 42  1  0
 13 43  1  0
 13 44  1  0
 17 45  1  0
 19 46  1  0
 20 47  1  0
 25 48  1  0
 26 49  1  0
 27 50  1  0
 29 51  1  0
 32 52  1  0
M  END
$$$$

     RDKit          3D

 75 79  0  0  0  0  0  0  0  0999 V2000
    8.5253    0.6464    2.7264 C   0  0  0  0  0  0  0  0  0  0  0  0
    7.2179    1.4285    2.6101 C   0  0  0  0  0  0  0  0  0  0  0  0
    6.0286    0.5438    2.2141 C   0  0  0  0  0  0  0  0  0  0  0  0
    6.1333   -0.0454    0.5272 S   0  0  0  0  0  6  0  0  0  0  0  0
    6.5674    1.0654   -0.3885 O   0  0  0  0  0  0  0  0  0  0  0  0
    7.1295   -1.1673    0.4325 O   0  0  0  0  0  0  0  0  0  0  0  0
    4.5482   -0.6299    0.0323 C   0  0  0  0  0  0  0  0  0  0  0  0
    4.1896   -1.9637    0.2531 C   0  0  0  0  0  0  0  0  0  0  0  0
    2.9323   -2.4259   -0.1394 C   0  0  0  0  0  0  0  0  0  0  0  0
    2.0094   -1.5553   -0.7437 C   0  0  0  0  0  0  0  0  0  0  0  0
    2.3558   -0.2032   -0.9373 C   0  0  0  0  0  0  0  0  0  0  0  0
    3.6311    0.2425   -0.5662 C   0  0  0  0  0  0  0  0  0  0  0  0
    1.5033    0.7070   -1.6467 N   0  0  0  0  0  0  0  0  0  0  0  0
    0.2015    0.7866   -1.6405 C   0  0  0  0  0  0  0  0  0  0  0  0
   -0.4341    1.8006   -2.5231 C   0  0  0  0  0  0  0  0  0  0  0  0
   -1.7004    1.5667   -3.0883 C   0  0  0  0  0  0  0  0  0  0  0  0
   -2.2950    2.5190   -3.9201 C   0  0  0  0  0  0  0  0  0  0  0  0
   -1.6330    3.7228   -4.2129 C   0  0  0  0  0  0  0  0  0  0  0  0
   -2.2668    4.7291   -5.0931 C   0  0  0  0  0  0  0  0  0  0  0  0
   -1.6704    5.8063   -5.3647 O   0  0  0  0  0  0  0  0  0  0  0  0
   -3.5304    4.4954   -5.6305 O   0  0  0  0  0  0  0  0  0  0  0  0
   -0.3615    3.9525   -3.6598 C   0  0  0  0  0  0  0  0  0  0  0  0
    0.2328    3.0003   -2.8269 C   0  0  0  0  0  0  0  0  0  0  0  0
   -0.6477   -0.0396   -0.7334 C   0  0  0  0  0  0  0  0  0  0  0  0
   -1.7254    0.5626   -0.0685 C   0  0  0  0  0  0  0  0  0  0  0  0
   -2.6251   -0.1799    0.7255 C   0  0  0  0  0  0  0  0  0  0  0  0
   -2.4737   -1.5950    0.7821 C   0  0  0  0  0  0  0  0  0  0  0  0
   -1.3419   -2.1752    0.1721 C   0  0  0  0  0  0  0  0  0  0  0  0
   -0.4362   -1.4147   -0.5773 C   0  0  0  0  0  0  0  0  0  0  0  0
    0.7215   -2.0405   -1.1466 N   0  0  0  0  0  0  0  0  0  0  0  0
    0.6002   -3.3142   -1.8595 C   0  0  0  0  0  0  0  0  0  0  0  0
   -3.4474   -2.4984    1.5546 C   0  0  0  0  0  0  0  0  0  0  0  0
   -3.8456   -3.7293    0.7020 C   0  0  0  0  0  0  0  0  0  0  0  0
   -2.7591   -2.9930    2.8475 C   0  0  0  0  0  0  0  0  0  0  0  0
   -4.7593   -1.7522    1.9033 C   0  0  0  0  0  0  0  0  0  0  0  0
   -4.4994   -0.3535    2.4488 C   0  0  0  0  0  0  0  0  0  0  0  0
   -3.7839    0.5549    1.4180 C   0  0  0  0  0  0  0  0  0  0  0  0
   -4.7894    1.0313    0.3443 C   0  0  0  0  0  0  0  0  0  0  0  0
   -3.2643    1.7909    2.1944 C   0  0  0  0  0  0  0  0  0  0  0  0
    9.3143    1.3068    3.1441 H   0  0  0  0  0  0  0  0  0  0  0  0
    8.8625    0.2967    1.7291 H   0  0  0  0  0  0  0  0  0  0  0  0
    8.3991   -0.2254    3.4031 H   0  0  0  0  0  0  0  0  0  0  0  0
    7.3408    2.2564    1.8792 H   0  0  0  0  0  0  0  0  0  0  0  0
    6.9975    1.8862    3.5988 H   0  0  0  0  0  0  0  0  0  0  0  0
    5.0974    1.1414    2.3116 H   0  0  0  0  0  0  0  0  0  0  0  0
    5.9469   -0.3248    2.9022 H   0  0  0  0  0  0  0  0  0  0  0  0
    4.8827   -2.6470    0.7269 H   0  0  0  0  0  0  0  0  0  0  0  0
    2.6737   -3.4615    0.0392 H   0  0  0  0  0  0  0  0  0  0  0  0
    3.9057    1.2750   -0.7444 H   0  0  0  0  0  0  0  0  0  0  0  0
   -2.2283    0.6409   -2.8952 H   0  0  0  0  0  0  0  0  0  0  0  0
   -3.2720    2.3089   -4.3372 H   0  0  0  0  0  0  0  0  0  0  0  0
   -3.9724    5.1769   -6.2356 H   0  0  0  0  0  0  0  0  0  0  0  0
    0.1747    4.8699   -3.8685 H   0  0  0  0  0  0  0  0  0  0  0  0
    1.2098    3.2089   -2.4085 H   0  0  0  0  0  0  0  0  0  0  0  0
   -1.8681    1.6274   -0.1884 H   0  0  0  0  0  0  0  0  0  0  0  0
   -1.1435   -3.2299    0.2935 H   0  0  0  0  0  0  0  0  0  0  0  0
    1.4434   -3.4346   -2.5728 H   0  0  0  0  0  0  0  0  0  0  0  0
    0.6105   -4.1577   -1.1380 H   0  0  0  0  0  0  0  0  0  0  0  0
   -0.3481   -3.3400   -2.4376 H   0  0  0  0  0  0  0  0  0  0  0  0
   -4.6579   -4.3029    1.1996 H   0  0  0  0  0  0  0  0  0  0  0  0
   -2.9997   -4.4325    0.5581 H   0  0  0  0  0  0  0  0  0  0  0  0
   -4.2085   -3.4078   -0.2985 H   0  0  0  0  0  0  0  0  0  0  0  0
   -3.4624   -3.5908    3.4665 H   0  0  0  0  0  0  0  0  0  0  0  0
   -2.3868   -2.1426    3.4556 H   0  0  0  0  0  0  0  0  0  0  0  0
   -1.8863   -3.6379    2.6093 H   0  0  0  0  0  0  0  0  0  0  0  0
   -5.4115   -1.6742    1.0069 H   0  0  0  0  0  0  0  0  0  0  0  0
   -5.3399   -2.3278    2.6581 H   0  0  0  0  0  0  0  0  0  0  0  0
   -5.4705    0.0982    2.7502 H   0  0  0  0  0  0  0  0  0  0  0  0
   -3.8968   -0.4352    3.3789 H   0  0  0  0  0  0  0  0  0  0  0  0
   -5.1353    0.1860   -0.2861 H   0  0  0  0  0  0  0  0  0  0  0  0
   -5.6753    1.5081    0.8164 H   0  0  0  0  0  0  0  0  0  0  0  0
   -4.3222    1.7793   -0.3318 H   0  0  0  0  0  0  0  0  0  0  0  0
   -4.0745    2.2308    2.8158 H   0  0  0  0  0  0  0  0  0  0  0  0
   -2.4272    1.5033    2.8667 H   0  0  0  0  0  0  0  0  0  0  0  0
   -2.9096    2.5951    1.5176 H   0  0  0  0  0  0  0  0  0  0  0  0
  1  2  1  0
  2  3  1  0
  3  4  1  0
  4  5  2  0
  4  6  2  0
  4  7  1  0
  7  8  2  0
  8  9  1  0
  9 10  2  0
 10 11  1  0
 11 12  2  0
 11 13  1  0
 13 14  2  0
 14 15  1  0
 15 16  2  0
 16 17  1  0
 17 18  2  0
 18 19  1  0
 19 20  2  0
 19 21  1  0
 18 22  1  0
 22 23  2  0
 14 24  1  0
 24 25  2  0
 25 26  1  0
 26 27  2  0
 27 28  1  0
 28 29  2  0
 29 30  1  0
 30 31  1  0
 27 32  1  0
 32 33  1  0
 32 34  1  0
 32 35  1  0
 35 36  1  0
 36 37  1  0
 37 38  1  0
 37 39  1  0
 12  7  1  0
 23 15  1  0
 29 24  1  0
 30 10  1  0
 37 26  1  0
  1 40  1  0
  1 41  1  0
  1 42  1  0
  2 43  1  0
  2 44  1  0
  3 45  1  0
  3 46  1  0
  8 47  1  0
  9 48  1  0
 12 49  1  0
 16 50  1  0
 17 51  1  0
 21 52  1  0
 22 53  1  0
 23 54  1  0
 25 55  1  0
 28 56  1  0
 31 57  1  0
 31 58  1  0
 31 59  1  0
 33 60  1  0
 33 61  1  0
 33 62  1  0
 34 63  1  0
 34 64  1  0
 34 65  1  0
 35 66  1  0
 35 67  1  0
 36 68  1  0
 36 69  1  0
 38 70  1  0
 38 71  1  0
 38 72  1  0
 39 73  1  0
 39 74  1  0
 39 75  1  0
M  END
$$$$

     RDKit          3D

 61 66  0  0  0  0  0  0  0  0999 V2000
    4.1500    7.8925   -1.0727 O   0  0  0  0  0  0  0  0  0  0  0  0
    4.0095    7.2683    0.0160 C   0  0  0  0  0  0  0  0  0  0  0  0
    5.0252    7.2937    0.9752 O   0  0  0  0  0  0  0  0  0  0  0  0
    2.7905    6.4306    0.2450 C   0  0  0  0  0  0  0  0  0  0  0  0
    2.9482    5.1153   -0.3718 N   0  0  0  0  0  0  0  0  0  0  0  0
    1.9475    4.0964   -0.2382 C   0  0  0  0  0  0  0  0  0  0  0  0
    2.0764    2.8909   -0.9371 C   0  0  0  0  0  0  0  0  0  0  0  0
    1.0860    1.9167   -0.8137 C   0  0  0  0  0  0  0  0  0  0  0  0
   -0.0241    2.1378    0.0146 C   0  0  0  0  0  0  0  0  0  0  0  0
   -1.0966    1.1226    0.1300 C   0  0  0  0  0  0  0  0  0  0  0  0
   -0.9692   -0.2633    0.1625 C   0  0  0  0  0  0  0  0  0  0  0  0
    0.2676   -0.9958    0.2083 C   0  0  0  0  0  0  0  0  0  0  0  0
    1.3208   -1.5814    0.2387 C   0  0  0  0  0  0  0  0  0  0  0  0
    2.5925   -2.2508    0.2629 C   0  0  0  0  0  0  0  0  0  0  0  0
    3.6764   -1.7223   -0.4426 C   0  0  0  0  0  0  0  0  0  0  0  0
    4.9021   -2.3900   -0.4178 C   0  0  0  0  0  0  0  0  0  0  0  0
    5.0363   -3.5766    0.3150 C   0  0  0  0  0  0  0  0  0  0  0  0
    6.2513   -4.2780    0.3555 C   0  0  0  0  0  0  0  0  0  0  0  0
    6.3524   -5.4617    1.0917 C   0  0  0  0  0  0  0  0  0  0  0  0
    5.2459   -5.9492    1.7919 C   0  0  0  0  0  0  0  0  0  0  0  0
    4.0305   -5.2567    1.7580 C   0  0  0  0  0  0  0  0  0  0  0  0
    3.9200   -4.0711    1.0212 C   0  0  0  0  0  0  0  0  0  0  0  0
    2.7368   -3.4020    0.9738 N   0  0  0  0  0  0  0  0  0  0  0  0
   -2.1881   -0.8572    0.1939 N   0  0  0  0  0  0  0  0  0  0  0  0
   -3.0397    0.1913    0.1752 C   0  0  0  0  0  0  0  0  0  0  0  0
   -4.4342    0.1353    0.1513 C   0  0  0  0  0  0  0  0  0  0  0  0
   -5.1377   -1.1154    0.0854 N   0  0  0  0  0  0  0  0  0  0  0  0
   -5.0615   -1.8768   -1.1669 C   0  0  0  0  0  0  0  0  0  0  0  0
   -5.7887   -3.2182   -1.0866 C   0  0  0  0  0  0  0  0  0  0  0  0
   -7.0046   -3.0902   -0.3894 O   0  0  0  0  0  0  0  0  0  0  0  0
   -6.7255   -2.8174    0.9661 C   0  0  0  0  0  0  0  0  0  0  0  0
   -6.1355   -1.4124    1.1260 C   0  0  0  0  0  0  0  0  0  0  0  0
   -5.1235    1.3626    0.1229 C   0  0  0  0  0  0  0  0  0  0  0  0
   -4.4035    2.5718    0.1013 C   0  0  0  0  0  0  0  0  0  0  0  0
   -3.0417    2.5488    0.1049 N   0  0  0  0  0  0  0  0  0  0  0  0
   -2.4124    1.3769    0.1521 N   0  0  0  0  0  0  0  0  0  0  0  0
   -0.1092    3.3546    0.7062 C   0  0  0  0  0  0  0  0  0  0  0  0
    0.8657    4.2927    0.5646 N   0  0  0  0  0  0  0  0  0  0  0  0
    5.8707    7.8311    0.8229 H   0  0  0  0  0  0  0  0  0  0  0  0
    2.6339    6.3125    1.3377 H   0  0  0  0  0  0  0  0  0  0  0  0
    1.9000    6.9359   -0.1875 H   0  0  0  0  0  0  0  0  0  0  0  0
    3.7833    4.9219   -0.9686 H   0  0  0  0  0  0  0  0  0  0  0  0
    2.9271    2.7152   -1.5830 H   0  0  0  0  0  0  0  0  0  0  0  0
    1.1768    1.0040   -1.3880 H   0  0  0  0  0  0  0  0  0  0  0  0
    3.5744   -0.7997   -1.0053 H   0  0  0  0  0  0  0  0  0  0  0  0
    5.7342   -1.9856   -0.9741 H   0  0  0  0  0  0  0  0  0  0  0  0
    7.1164   -3.9166   -0.1858 H   0  0  0  0  0  0  0  0  0  0  0  0
    7.2881   -6.0052    1.1148 H   0  0  0  0  0  0  0  0  0  0  0  0
    5.3264   -6.8709    2.3549 H   0  0  0  0  0  0  0  0  0  0  0  0
    3.1789   -5.6414    2.3023 H   0  0  0  0  0  0  0  0  0  0  0  0
   -4.0050   -2.0685   -1.4220 H   0  0  0  0  0  0  0  0  0  0  0  0
   -5.5026   -1.2778   -1.9804 H   0  0  0  0  0  0  0  0  0  0  0  0
   -6.0076   -3.5671   -2.1173 H   0  0  0  0  0  0  0  0  0  0  0  0
   -5.1329   -3.9910   -0.6286 H   0  0  0  0  0  0  0  0  0  0  0  0
   -7.6752   -2.8832    1.5455 H   0  0  0  0  0  0  0  0  0  0  0  0
   -6.0352   -3.5793    1.4021 H   0  0  0  0  0  0  0  0  0  0  0  0
   -5.6562   -1.3424    2.1280 H   0  0  0  0  0  0  0  0  0  0  0  0
   -6.9587   -0.6608    1.0813 H   0  0  0  0  0  0  0  0  0  0  0  0
   -6.2047    1.3841    0.0864 H   0  0  0  0  0  0  0  0  0  0  0  0
   -4.9275    3.5173    0.0680 H   0  0  0  0  0  0  0  0  0  0  0  0
   -0.9402    3.5553    1.3688 H   0  0  0  0  0  0  0  0  0  0  0  0
  1  2  2  0
  2  3  1  0
  2  4  1  0
  4  5  1  0
  5  6  1  0
  6  7  2  0
  7  8  1  0
  8  9  2  0
  9 10  1  0
 10 11  2  0
 11 12  1  0
 12 13  3  0
 13 14  1  0
 14 15  2  0
 15 16  1  0
 16 17  2  0
 17 18  1  0
 18 19  2  0
 19 20  1  0
 20 21  2  0
 21 22  1  0
 22 23  2  0
 11 24  1  0
 24 25  2  0
 25 26  1  0
 26 27  1  0
 27 28  1  0
 28 29  1  0
 29 30  1  0
 30 31  1  0
 31 32  1  0
 26 33  2  0
 33 34  1  0
 34 35  2  0
 35 36  1  0
  9 37  1  0
 37 38  2  0
 38  6  1  0
 36 10  1  0
 23 14  1  0
 36 25  1  0
 22 17  1  0
 32 27  1  0
  3 39  1  0
  4 40  1  0
  4 41  1  0
  5 42  1  0
  7 43  1  0
  8 44  1  0
 15 45  1  0
 16 46  1  0
 18 47  1  0
 19 48  1  0
 20 49  1  0
 21 50  1  0
 28 51  1  0
 28 52  1  0
 29 53  1  0
 29 54  1  0
 31 55  1  0
 31 56  1  0
 32 57  1  0
 32 58  1  0
 33 59  1  0
 34 60  1  0
 37 61  1  0
M  END
$$$$

     RDKit          3D

 55 59  0  0  0  0  0  0  0  0999 V2000
    8.4780    0.3812   -1.4427 C   0  0  0  0  0  0  0  0  0  0  0  0
    7.5984    1.4776   -1.3208 O   0  0  0  0  0  0  0  0  0  0  0  0
    6.3238    1.1404   -1.8390 C   0  0  0  0  0  0  0  0  0  0  0  0
    5.5624    2.4129   -2.2236 C   0  0  0  0  0  0  0  0  0  0  0  0
    4.1061    2.1549   -1.8592 C   0  0  0  0  0  0  0  0  0  0  0  0
    4.1336    1.0394   -0.9329 N   0  0  0  0  0  0  0  0  0  0  0  0
    2.9714    0.5486   -0.2540 C   0  0  0  0  0  0  0  0  0  0  0  0
    3.0036   -0.4977    0.6138 N   0  0  0  0  0  0  0  0  0  0  0  0
    1.7094   -0.5708    0.9732 C   0  0  0  0  0  0  0  0  0  0  0  0
    1.1445   -1.4733    1.8685 C   0  0  0  0  0  0  0  0  0  0  0  0
   -0.2367   -1.3738    2.1054 C   0  0  0  0  0  0  0  0  0  0  0  0
   -1.0128   -0.3934    1.4379 C   0  0  0  0  0  0  0  0  0  0  0  0
   -2.4238   -0.2606    1.6699 N   0  0  0  0  0  0  0  0  0  0  0  0
   -3.3290   -1.3753    1.7490 C   0  0  0  0  0  0  0  0  0  0  0  0
   -2.8880   -2.5557    1.7583 O   0  0  0  0  0  0  0  0  0  0  0  0
   -4.7893   -1.1550    1.7999 C   0  0  0  0  0  0  0  0  0  0  0  0
   -5.5142   -0.1529    1.1689 C   0  0  0  0  0  0  0  0  0  0  0  0
   -5.0708    0.8563    0.1932 C   0  0  0  0  0  0  0  0  0  0  0  0
   -5.5352    2.0247    0.2631 O   0  0  0  0  0  0  0  0  0  0  0  0
   -4.1735    0.5246   -0.8686 N   0  0  0  0  0  0  0  0  0  0  0  0
   -3.6334   -0.6776   -1.5328 C   0  0  0  0  0  0  0  0  0  0  0  0
   -2.9583    0.0472   -2.6489 C   0  0  0  0  0  0  0  0  0  0  0  0
   -3.5182    1.2521   -1.9698 C   0  0  0  0  0  0  0  0  0  0  0  0
   -6.8101   -0.3098    1.6239 C   0  0  0  0  0  0  0  0  0  0  0  0
   -6.8666   -1.3605    2.4642 N   0  0  0  0  0  0  0  0  0  0  0  0
   -5.6472   -1.8663    2.5658 N   0  0  0  0  0  0  0  0  0  0  0  0
   -5.3254   -3.0027    3.4229 C   0  0  0  0  0  0  0  0  0  0  0  0
   -0.3685    0.5010    0.5628 C   0  0  0  0  0  0  0  0  0  0  0  0
    0.9654    0.3604    0.3684 N   0  0  0  0  0  0  0  0  0  0  0  0
    1.7377    1.0847   -0.4154 N   0  0  0  0  0  0  0  0  0  0  0  0
    5.4529    0.4551   -0.7832 C   0  0  0  0  0  0  0  0  0  0  0  0
    9.4398    0.6438   -0.9565 H   0  0  0  0  0  0  0  0  0  0  0  0
    8.6903    0.1608   -2.5121 H   0  0  0  0  0  0  0  0  0  0  0  0
    8.0781   -0.5226   -0.9315 H   0  0  0  0  0  0  0  0  0  0  0  0
    6.3833    0.4977   -2.7516 H   0  0  0  0  0  0  0  0  0  0  0  0
    5.9387    3.2783   -1.6336 H   0  0  0  0  0  0  0  0  0  0  0  0
    5.6734    2.6393   -3.3065 H   0  0  0  0  0  0  0  0  0  0  0  0
    3.5188    1.8765   -2.7610 H   0  0  0  0  0  0  0  0  0  0  0  0
    3.6586    3.0505   -1.3758 H   0  0  0  0  0  0  0  0  0  0  0  0
    1.7473   -2.2180    2.3720 H   0  0  0  0  0  0  0  0  0  0  0  0
   -0.6903   -2.0408    2.8257 H   0  0  0  0  0  0  0  0  0  0  0  0
   -2.8222    0.7044    1.6533 H   0  0  0  0  0  0  0  0  0  0  0  0
   -4.4555   -1.3383   -1.8874 H   0  0  0  0  0  0  0  0  0  0  0  0
   -2.9056   -1.2141   -0.8897 H   0  0  0  0  0  0  0  0  0  0  0  0
   -3.4168   -0.1507   -3.6420 H   0  0  0  0  0  0  0  0  0  0  0  0
   -1.8487   -0.0062   -2.5988 H   0  0  0  0  0  0  0  0  0  0  0  0
   -4.2687    1.7835   -2.5966 H   0  0  0  0  0  0  0  0  0  0  0  0
   -2.7296    1.9343   -1.5826 H   0  0  0  0  0  0  0  0  0  0  0  0
   -7.6654    0.2908    1.3436 H   0  0  0  0  0  0  0  0  0  0  0  0
   -6.2090   -3.2851    4.0338 H   0  0  0  0  0  0  0  0  0  0  0  0
   -5.0323   -3.8721    2.7981 H   0  0  0  0  0  0  0  0  0  0  0  0
   -4.4925   -2.7366    4.1075 H   0  0  0  0  0  0  0  0  0  0  0  0
   -0.9217    1.2753    0.0468 H   0  0  0  0  0  0  0  0  0  0  0  0
    5.4142   -0.6409   -0.9655 H   0  0  0  0  0  0  0  0  0  0  0  0
    5.8296    0.6541    0.2439 H   0  0  0  0  0  0  0  0  0  0  0  0
  1  2  1  0
  2  3  1  0
  3  4  1  0
  4  5  1  0
  5  6  1  0
  6  7  1  0
  7  8  1  0
  8  9  2  0
  9 10  1  0
 10 11  2  0
 11 12  1  0
 12 13  1  0
 13 14  1  0
 14 15  2  0
 14 16  1  0
 16 17  2  0
 17 18  1  0
 18 19  2  0
 18 20  1  0
 20 21  1  0
 21 22  1  0
 22 23  1  0
 17 24  1  0
 24 25  2  0
 25 26  1  0
 26 27  1  0
 12 28  2  0
 28 29  1  0
 29 30  1  0
  6 31  1  0
 31  3  1  0
 30  7  2  0
 29  9  1  0
 26 16  1  0
 23 20  1  0
  1 32  1  0
  1 33  1  0
  1 34  1  0
  3 35  1  0
  4 36  1  0
  4 37  1  0
  5 38  1  0
  5 39  1  0
 10 40  1  0
 11 41  1  0
 13 42  1  0
 21 43  1  0
 21 44  1  0
 22 45  1  0
 22 46  1  0
 23 47  1  0
 23 48  1  0
 24 49  1  0
 27 50  1  0
 27 51  1  0
 27 52  1  0
 28 53  1  0
 31 54  1  0
 31 55  1  0
M  END
$$$$

     RDKit          3D

 51 55  0  0  0  0  0  0  0  0999 V2000
   -3.4198    3.1764    0.9479 C   0  0  0  0  0  0  0  0  0  0  0  0
   -3.6129    1.7334    0.7469 N   0  0  0  0  0  0  0  0  0  0  0  0
   -3.1233    1.1090   -0.4581 C   0  0  0  0  0  0  0  0  0  0  0  0
   -2.1948    1.6527   -1.1167 O   0  0  0  0  0  0  0  0  0  0  0  0
   -3.6757   -0.1701   -0.9441 C   0  0  0  0  0  0  0  0  0  0  0  0
   -5.0139   -0.5085   -1.0279 C   0  0  0  0  0  0  0  0  0  0  0  0
   -5.1395   -1.6840   -1.6740 N   0  0  0  0  0  0  0  0  0  0  0  0
   -3.9263   -2.0989   -2.0028 N   0  0  0  0  0  0  0  0  0  0  0  0
   -3.6727   -3.3509   -2.7074 C   0  0  0  0  0  0  0  0  0  0  0  0
   -3.0070   -1.2032   -1.5814 C   0  0  0  0  0  0  0  0  0  0  0  0
   -1.5461   -1.3470   -1.7454 C   0  0  0  0  0  0  0  0  0  0  0  0
   -1.0915   -1.7903   -2.8333 O   0  0  0  0  0  0  0  0  0  0  0  0
   -0.6574   -0.9789   -0.6758 N   0  0  0  0  0  0  0  0  0  0  0  0
    0.7746   -1.0913   -0.7303 C   0  0  0  0  0  0  0  0  0  0  0  0
    1.4193   -2.1717   -1.3873 C   0  0  0  0  0  0  0  0  0  0  0  0
    2.8207   -2.2701   -1.3921 C   0  0  0  0  0  0  0  0  0  0  0  0
    3.5367   -1.2874   -0.7185 C   0  0  0  0  0  0  0  0  0  0  0  0
    4.8726   -1.2088   -0.5895 N   0  0  0  0  0  0  0  0  0  0  0  0
    5.0036   -0.0845    0.1670 C   0  0  0  0  0  0  0  0  0  0  0  0
    6.3077    0.4531    0.6086 C   0  0  0  0  0  0  0  0  0  0  0  0
    6.3742    1.5573    1.4731 C   0  0  0  0  0  0  0  0  0  0  0  0
    7.6129    2.0464    1.8917 C   0  0  0  0  0  0  0  0  0  0  0  0
    8.7800    1.4312    1.4363 C   0  0  0  0  0  0  0  0  0  0  0  0
    8.7044    0.3668    0.5943 N   0  0  0  0  0  0  0  0  0  0  0  0
    7.5101   -0.1316    0.1761 C   0  0  0  0  0  0  0  0  0  0  0  0
    3.8138    0.4867    0.4801 N   0  0  0  0  0  0  0  0  0  0  0  0
    2.9132   -0.2879   -0.0887 N   0  0  0  0  0  0  0  0  0  0  0  0
    1.5659   -0.1425   -0.0547 C   0  0  0  0  0  0  0  0  0  0  0  0
   -4.0912    0.8636    1.8378 C   0  0  0  0  0  0  0  0  0  0  0  0
   -4.7400    1.5310    3.0493 C   0  0  0  0  0  0  0  0  0  0  0  0
   -5.6036    0.8682    1.9875 C   0  0  0  0  0  0  0  0  0  0  0  0
   -2.7780    3.3530    1.8356 H   0  0  0  0  0  0  0  0  0  0  0  0
   -2.9382    3.6553    0.0714 H   0  0  0  0  0  0  0  0  0  0  0  0
   -4.4029    3.6721    1.0861 H   0  0  0  0  0  0  0  0  0  0  0  0
   -5.8505    0.0859   -0.6897 H   0  0  0  0  0  0  0  0  0  0  0  0
   -3.2726   -3.1366   -3.7213 H   0  0  0  0  0  0  0  0  0  0  0  0
   -4.6143   -3.9314   -2.8102 H   0  0  0  0  0  0  0  0  0  0  0  0
   -2.9392   -3.9621   -2.1389 H   0  0  0  0  0  0  0  0  0  0  0  0
   -1.0684   -0.5389    0.1784 H   0  0  0  0  0  0  0  0  0  0  0  0
    0.8454   -2.9540   -1.8639 H   0  0  0  0  0  0  0  0  0  0  0  0
    3.3227   -3.0895   -1.8890 H   0  0  0  0  0  0  0  0  0  0  0  0
    5.4721    2.0382    1.8300 H   0  0  0  0  0  0  0  0  0  0  0  0
    7.6679    2.8956    2.5595 H   0  0  0  0  0  0  0  0  0  0  0  0
    9.7470    1.8005    1.7509 H   0  0  0  0  0  0  0  0  0  0  0  0
    7.5029   -0.9826   -0.4932 H   0  0  0  0  0  0  0  0  0  0  0  0
    1.1144    0.6868    0.4759 H   0  0  0  0  0  0  0  0  0  0  0  0
   -3.5731   -0.1040    2.0133 H   0  0  0  0  0  0  0  0  0  0  0  0
   -4.8657    2.6316    3.0686 H   0  0  0  0  0  0  0  0  0  0  0  0
   -4.6833    0.9381    3.9858 H   0  0  0  0  0  0  0  0  0  0  0  0
   -6.0332   -0.1106    2.2920 H   0  0  0  0  0  0  0  0  0  0  0  0
   -6.1470    1.5846    1.3346 H   0  0  0  0  0  0  0  0  0  0  0  0
  1  2  1  0
  2  3  1  0
  3  4  2  0
  3  5  1  0
  5  6  1  0
  6  7  2  0
  7  8  1  0
  8  9  1  0
  8 10  1  0
 10 11  1  0
 11 12  2  0
 11 13  1  0
 13 14  1  0
 14 15  1  0
 15 16  2  0
 16 17  1  0
 17 18  2  0
 18 19  1  0
 19 20  1  0
 20 21  2  0
 21 22  1  0
 22 23  2  0
 23 24  1  0
 24 25  2  0
 19 26  2  0
 26 27  1  0
 27 28  1  0
  2 29  1  0
 29 30  1  0
 30 31  1  0
 10  5  2  0
 28 14  2  0
 31 29  1  0
 27 17  1  0
 25 20  1  0
  1 32  1  0
  1 33  1  0
  1 34  1  0
  6 35  1  0
  9 36  1  0
  9 37  1  0
  9 38  1  0
 13 39  1  0
 15 40  1  0
 16 41  1  0
 21 42  1  0
 22 43  1  0
 23 44  1  0
 25 45  1  0
 28 46  1  0
 29 47  1  0
 30 48  1  0
 30 49  1  0
 31 50  1  0
 31 51  1  0
M  END
$$$$

     RDKit          3D

 72 76  0  0  0  0  0  0  0  0999 V2000
   -7.5877    0.7878   -2.0423 C   0  0  0  0  0  0  0  0  0  0  0  0
   -7.7378    0.9781   -0.5179 C   0  0  0  0  0  0  0  0  0  0  0  0
   -9.0542    0.3445   -0.0237 C   0  0  0  0  0  0  0  0  0  0  0  0
   -7.7873    2.4930   -0.2242 C   0  0  0  0  0  0  0  0  0  0  0  0
   -6.5844    0.3893    0.1961 N   0  0  0  0  0  0  0  0  0  0  0  0
   -6.1014   -0.9620    0.0239 C   0  0  0  0  0  0  0  0  0  0  0  0
   -6.9374   -1.9088   -0.4842 N   0  0  0  0  0  0  0  0  0  0  0  0
   -6.5843   -3.2112   -0.6162 C   0  0  0  0  0  0  0  0  0  0  0  0
   -5.3248   -3.6372   -0.2099 C   0  0  0  0  0  0  0  0  0  0  0  0
   -4.4189   -2.7071    0.3112 C   0  0  0  0  0  0  0  0  0  0  0  0
   -3.1450   -3.1234    0.7212 C   0  0  0  0  0  0  0  0  0  0  0  0
   -2.2256   -2.2002    1.2180 C   0  0  0  0  0  0  0  0  0  0  0  0
   -2.5528   -0.8377    1.2866 C   0  0  0  0  0  0  0  0  0  0  0  0
   -1.6004    0.1737    1.7995 C   0  0  0  0  0  0  0  0  0  0  0  0
   -2.0116    1.0119    2.6499 O   0  0  0  0  0  0  0  0  0  0  0  0
   -0.2855    0.3382    1.2362 N   0  0  0  0  0  0  0  0  0  0  0  0
    0.1550    1.6860    0.8561 C   0  0  0  0  0  0  0  0  0  0  0  0
    1.0626    1.5989   -0.3725 C   0  0  0  0  0  0  0  0  0  0  0  0
    2.3159    0.6863   -0.1426 C   0  0  0  0  0  0  0  0  0  0  0  0
    2.1115   -0.2648    1.0772 C   0  0  0  0  0  0  0  0  0  0  0  0
    0.6701   -0.7775    1.1858 C   0  0  0  0  0  0  0  0  0  0  0  0
    3.5677    1.5981    0.1293 C   0  0  0  0  0  0  0  0  0  0  0  0
    4.8401    0.8293   -0.0433 C   0  0  0  0  0  0  0  0  0  0  0  0
    6.1207    1.1093    0.3705 C   0  0  0  0  0  0  0  0  0  0  0  0
    6.9552    0.2252   -0.2319 N   0  0  0  0  0  0  0  0  0  0  0  0
    8.4239    0.1849   -0.0875 C   0  0  0  0  0  0  0  0  0  0  0  0
    8.7888   -0.0115    1.3961 C   0  0  0  0  0  0  0  0  0  0  0  0
    9.0177   -0.9834   -0.9030 C   0  0  0  0  0  0  0  0  0  0  0  0
    9.0257    1.5064   -0.6006 C   0  0  0  0  0  0  0  0  0  0  0  0
    6.2563   -0.5742   -1.0316 N   0  0  0  0  0  0  0  0  0  0  0  0
    4.9691   -0.2046   -0.9174 C   0  0  0  0  0  0  0  0  0  0  0  0
    3.8220   -0.7104   -1.6553 C   0  0  0  0  0  0  0  0  0  0  0  0
    3.9527   -1.5962   -2.5404 O   0  0  0  0  0  0  0  0  0  0  0  0
    2.5323   -0.1560   -1.3486 N   0  0  0  0  0  0  0  0  0  0  0  0
   -3.8344   -0.4183    0.8919 C   0  0  0  0  0  0  0  0  0  0  0  0
   -4.7905   -1.3435    0.4200 C   0  0  0  0  0  0  0  0  0  0  0  0
   -6.6152    1.2019   -2.3881 H   0  0  0  0  0  0  0  0  0  0  0  0
   -7.6343   -0.2823   -2.3276 H   0  0  0  0  0  0  0  0  0  0  0  0
   -8.4059    1.3130   -2.5836 H   0  0  0  0  0  0  0  0  0  0  0  0
   -9.9279    0.8709   -0.4639 H   0  0  0  0  0  0  0  0  0  0  0  0
   -9.1337   -0.7219   -0.3123 H   0  0  0  0  0  0  0  0  0  0  0  0
   -9.1227    0.4132    1.0821 H   0  0  0  0  0  0  0  0  0  0  0  0
   -7.8930    2.6764    0.8679 H   0  0  0  0  0  0  0  0  0  0  0  0
   -6.8507    2.9854   -0.5664 H   0  0  0  0  0  0  0  0  0  0  0  0
   -8.6471    2.9719   -0.7441 H   0  0  0  0  0  0  0  0  0  0  0  0
   -6.1535    0.9674    0.9510 H   0  0  0  0  0  0  0  0  0  0  0  0
   -7.2907   -3.9193   -1.0284 H   0  0  0  0  0  0  0  0  0  0  0  0
   -5.0571   -4.6819   -0.3118 H   0  0  0  0  0  0  0  0  0  0  0  0
   -2.8628   -4.1687    0.6635 H   0  0  0  0  0  0  0  0  0  0  0  0
   -1.2748   -2.5682    1.5700 H   0  0  0  0  0  0  0  0  0  0  0  0
    0.6979    2.1566    1.7049 H   0  0  0  0  0  0  0  0  0  0  0  0
   -0.7221    2.3240    0.6050 H   0  0  0  0  0  0  0  0  0  0  0  0
    1.3498    2.6281   -0.6747 H   0  0  0  0  0  0  0  0  0  0  0  0
    0.4431    1.2050   -1.2065 H   0  0  0  0  0  0  0  0  0  0  0  0
    2.3500    0.2636    2.0279 H   0  0  0  0  0  0  0  0  0  0  0  0
    2.8041   -1.1329    1.0154 H   0  0  0  0  0  0  0  0  0  0  0  0
    0.4400   -1.4256    0.3135 H   0  0  0  0  0  0  0  0  0  0  0  0
    0.5957   -1.3766    2.1188 H   0  0  0  0  0  0  0  0  0  0  0  0
    3.5274    2.0451    1.1467 H   0  0  0  0  0  0  0  0  0  0  0  0
    3.6031    2.4343   -0.6028 H   0  0  0  0  0  0  0  0  0  0  0  0
    6.4251    1.9163    1.0239 H   0  0  0  0  0  0  0  0  0  0  0  0
    8.3097   -0.9339    1.7914 H   0  0  0  0  0  0  0  0  0  0  0  0
    8.4383    0.8484    2.0058 H   0  0  0  0  0  0  0  0  0  0  0  0
    9.8899   -0.0984    1.5245 H   0  0  0  0  0  0  0  0  0  0  0  0
    8.6041   -1.9528   -0.5514 H   0  0  0  0  0  0  0  0  0  0  0  0
   10.1243   -1.0143   -0.7975 H   0  0  0  0  0  0  0  0  0  0  0  0
    8.7760   -0.8693   -1.9816 H   0  0  0  0  0  0  0  0  0  0  0  0
    8.6584    2.3673   -0.0035 H   0  0  0  0  0  0  0  0  0  0  0  0
   10.1349    1.4861   -0.5316 H   0  0  0  0  0  0  0  0  0  0  0  0
    8.7408    1.6713   -1.6614 H   0  0  0  0  0  0  0  0  0  0  0  0
    1.7079   -0.5523   -1.8551 H   0  0  0  0  0  0  0  0  0  0  0  0
   -4.0520    0.6391    0.9312 H   0  0  0  0  0  0  0  0  0  0  0  0
  1  2  1  0
  2  3  1  0
  2  4  1  0
  2  5  1  0
  5  6  1  0
  6  7  2  0
  7  8  1  0
  8  9  2  0
  9 10  1  0
 10 11  2  0
 11 12  1  0
 12 13  2  0
 13 14  1  0
 14 15  2  0
 14 16  1  0
 16 17  1  0
 17 18  1  0
 18 19  1  0
 19 20  1  0
 20 21  1  0
 19 22  1  0
 22 23  1  0
 23 24  2  0
 24 25  1  0
 25 26  1  0
 26 27  1  0
 26 28  1  0
 26 29  1  0
 25 30  1  0
 30 31  2  0
 31 32  1  0
 32 33  2  0
 32 34  1  0
 13 35  1  0
 35 36  2  0
 36  6  1  0
 36 10  1  0
 21 16  1  0
 31 23  1  0
 34 19  1  0
  1 37  1  0
  1 38  1  0
  1 39  1  0
  3 40  1  0
  3 41  1  0
  3 42  1  0
  4 43  1  0
  4 44  1  0
  4 45  1  0
  5 46  1  0
  8 47  1  0
  9 48  1  0
 11 49  1  0
 12 50  1  0
 17 51  1  0
 17 52  1  0
 18 53  1  0
 18 54  1  0
 20 55  1  0
 20 56  1  0
 21 57  1  0
 21 58  1  0
 22 59  1  0
 22 60  1  0
 24 61  1  0
 27 62  1  0
 27 63  1  0
 27 64  1  0
 28 65  1  0
 28 66  1  0
 28 67  1  0
 29 68  1  0
 29 69  1  0
 29 70  1  0
 34 71  1  0
 35 72  1  0
M  END
$$$$

     RDKit          3D

 69 72  0  0  0  0  0  0  0  0999 V2000
   -5.9765    0.7906    2.7826 C   0  0  0  0  0  0  0  0  0  0  0  0
   -5.7782    1.7493    1.6089 C   0  0  0  0  0  0  0  0  0  0  0  0
   -4.4057    2.4403    1.6500 C   0  0  0  0  0  0  0  0  0  0  0  0
   -3.2656    1.4650    1.4173 C   0  0  0  0  0  0  0  0  0  0  0  0
   -2.5309    1.0737    2.4963 N   0  0  0  0  0  0  0  0  0  0  0  0
   -1.5102    0.1835    2.4055 C   0  0  0  0  0  0  0  0  0  0  0  0
   -0.8723   -0.1227    3.4501 O   0  0  0  0  0  0  0  0  0  0  0  0
   -1.1683   -0.3908    1.1671 C   0  0  0  0  0  0  0  0  0  0  0  0
   -0.0327   -1.4071    1.1015 C   0  0  0  0  0  0  0  0  0  0  0  0
    1.2861   -0.8694    0.5604 C   0  0  0  0  0  0  0  0  0  0  0  0
    1.4583    0.4987    0.2562 C   0  0  0  0  0  0  0  0  0  0  0  0
    2.6703    0.9692   -0.2582 C   0  0  0  0  0  0  0  0  0  0  0  0
    2.8478    2.3240   -0.5810 C   0  0  0  0  0  0  0  0  0  0  0  0
    4.0788    2.7731   -1.1001 C   0  0  0  0  0  0  0  0  0  0  0  0
    4.3068    4.1147   -1.4410 O   0  0  0  0  0  0  0  0  0  0  0  0
    3.3405    5.1528   -1.3126 C   0  0  0  0  0  0  0  0  0  0  0  0
    5.1199    1.8550   -1.2871 C   0  0  0  0  0  0  0  0  0  0  0  0
    4.9459    0.5061   -0.9657 C   0  0  0  0  0  0  0  0  0  0  0  0
    3.7244    0.0605   -0.4531 C   0  0  0  0  0  0  0  0  0  0  0  0
    3.5556   -1.2474   -0.1376 N   0  0  0  0  0  0  0  0  0  0  0  0
    2.3889   -1.7419    0.3631 C   0  0  0  0  0  0  0  0  0  0  0  0
    2.3086   -3.1450    0.6851 N   0  0  0  0  0  0  0  0  0  0  0  0
    3.4594   -4.0415    0.5781 C   0  0  0  0  0  0  0  0  0  0  0  0
    4.4256   -3.8179    1.7441 C   0  0  0  0  0  0  0  0  0  0  0  0
    5.5492   -4.6690    1.6151 O   0  0  0  0  0  0  0  0  0  0  0  0
    5.3924   -5.8179    2.4186 C   0  0  0  0  0  0  0  0  0  0  0  0
   -1.8786    0.0228    0.0076 C   0  0  0  0  0  0  0  0  0  0  0  0
   -1.5366   -0.4554   -1.2766 C   0  0  0  0  0  0  0  0  0  0  0  0
   -2.2339   -0.0362   -2.4211 C   0  0  0  0  0  0  0  0  0  0  0  0
   -1.9038   -0.4967   -3.7067 O   0  0  0  0  0  0  0  0  0  0  0  0
   -0.8427   -1.4014   -3.9967 C   0  0  0  0  0  0  0  0  0  0  0  0
   -3.2886    0.8703   -2.2959 C   0  0  0  0  0  0  0  0  0  0  0  0
   -3.9672    1.2624   -3.4619 O   0  0  0  0  0  0  0  0  0  0  0  0
   -5.0575    2.1779   -3.4974 C   0  0  0  0  0  0  0  0  0  0  0  0
   -3.6356    1.3644   -1.0278 C   0  0  0  0  0  0  0  0  0  0  0  0
   -2.9420    0.9561    0.1319 C   0  0  0  0  0  0  0  0  0  0  0  0
   -6.9995    0.3612    2.7415 H   0  0  0  0  0  0  0  0  0  0  0  0
   -5.8565    1.3285    3.7469 H   0  0  0  0  0  0  0  0  0  0  0  0
   -5.2441   -0.0427    2.7329 H   0  0  0  0  0  0  0  0  0  0  0  0
   -5.9110    1.1910    0.6586 H   0  0  0  0  0  0  0  0  0  0  0  0
   -6.5687    2.5292    1.6531 H   0  0  0  0  0  0  0  0  0  0  0  0
   -4.2917    2.9389    2.6372 H   0  0  0  0  0  0  0  0  0  0  0  0
   -4.3651    3.2648    0.9079 H   0  0  0  0  0  0  0  0  0  0  0  0
   -2.7622    1.4583    3.4411 H   0  0  0  0  0  0  0  0  0  0  0  0
    0.1590   -1.8423    2.1052 H   0  0  0  0  0  0  0  0  0  0  0  0
   -0.3723   -2.2614    0.4794 H   0  0  0  0  0  0  0  0  0  0  0  0
    0.6572    1.2084    0.4143 H   0  0  0  0  0  0  0  0  0  0  0  0
    2.0312    3.0181   -0.4290 H   0  0  0  0  0  0  0  0  0  0  0  0
    2.4537    4.9292   -1.9427 H   0  0  0  0  0  0  0  0  0  0  0  0
    3.0371    5.2631   -0.2498 H   0  0  0  0  0  0  0  0  0  0  0  0
    3.7876    6.1084   -1.6553 H   0  0  0  0  0  0  0  0  0  0  0  0
    6.0696    2.1903   -1.6845 H   0  0  0  0  0  0  0  0  0  0  0  0
    5.7614   -0.1906   -1.1160 H   0  0  0  0  0  0  0  0  0  0  0  0
    1.4058   -3.5768    0.9790 H   0  0  0  0  0  0  0  0  0  0  0  0
    3.9789   -3.8815   -0.3914 H   0  0  0  0  0  0  0  0  0  0  0  0
    3.1022   -5.0935    0.5989 H   0  0  0  0  0  0  0  0  0  0  0  0
    3.8848   -3.9297    2.7147 H   0  0  0  0  0  0  0  0  0  0  0  0
    4.7922   -2.7708    1.7122 H   0  0  0  0  0  0  0  0  0  0  0  0
    4.4583   -6.3677    2.1677 H   0  0  0  0  0  0  0  0  0  0  0  0
    6.2460   -6.5011    2.2306 H   0  0  0  0  0  0  0  0  0  0  0  0
    5.4064   -5.5490    3.4980 H   0  0  0  0  0  0  0  0  0  0  0  0
   -0.7154   -1.1416   -1.4031 H   0  0  0  0  0  0  0  0  0  0  0  0
   -1.0148   -2.3699   -3.4815 H   0  0  0  0  0  0  0  0  0  0  0  0
    0.1284   -0.9654   -3.6799 H   0  0  0  0  0  0  0  0  0  0  0  0
   -0.8100   -1.5828   -5.0904 H   0  0  0  0  0  0  0  0  0  0  0  0
   -4.7363    3.1697   -3.1148 H   0  0  0  0  0  0  0  0  0  0  0  0
   -5.9035    1.7886   -2.8925 H   0  0  0  0  0  0  0  0  0  0  0  0
   -5.3967    2.2959   -4.5468 H   0  0  0  0  0  0  0  0  0  0  0  0
   -4.4437    2.0736   -0.9602 H   0  0  0  0  0  0  0  0  0  0  0  0
  1  2  1  0
  2  3  1  0
  3  4  1  0
  4  5  1  0
  5  6  1  0
  6  7  2  0
  6  8  1  0
  8  9  1  0
  9 10  1  0
 10 11  2  0
 11 12  1  0
 12 13  2  0
 13 14  1  0
 14 15  1  0
 15 16  1  0
 14 17  2  0
 17 18  1  0
 18 19  2  0
 19 20  1  0
 20 21  2  0
 21 22  1  0
 22 23  1  0
 23 24  1  0
 24 25  1  0
 25 26  1  0
  8 27  2  0
 27 28  1  0
 28 29  2  0
 29 30  1  0
 30 31  1  0
 29 32  1  0
 32 33  1  0
 33 34  1  0
 32 35  2  0
 35 36  1  0
 36  4  2  0
 21 10  1  0
 36 27  1  0
 19 12  1  0
  1 37  1  0
  1 38  1  0
  1 39  1  0
  2 40  1  0
  2 41  1  0
  3 42  1  0
  3 43  1  0
  5 44  1  0
  9 45  1  0
  9 46  1  0
 11 47  1  0
 13 48  1  0
 16 49  1  0
 16 50  1  0
 16 51  1  0
 17 52  1  0
 18 53  1  0
 22 54  1  0
 23 55  1  0
 23 56  1  0
 24 57  1  0
 24 58  1  0
 26 59  1  0
 26 60  1  0
 26 61  1  0
 28 62  1  0
 31 63  1  0
 31 64  1  0
 31 65  1  0
 34 66  1  0
 34 67  1  0
 34 68  1  0
 35 69  1  0
M  END
$$$$

     RDKit          3D

 50 53  0  0  0  0  0  0  0  0999 V2000
   -5.1280   -3.3465   -0.8998 C   0  0  0  0  0  0  0  0  0  0  0  0
   -4.9079   -1.9074   -0.9660 N   0  0  0  0  0  0  0  0  0  0  0  0
   -3.9440   -1.2542   -0.1300 C   0  0  0  0  0  0  0  0  0  0  0  0
   -3.1570   -1.9414    0.5759 O   0  0  0  0  0  0  0  0  0  0  0  0
   -3.8374    0.2190   -0.1045 C   0  0  0  0  0  0  0  0  0  0  0  0
   -2.6679    0.9510   -0.0153 C   0  0  0  0  0  0  0  0  0  0  0  0
   -1.3286    0.4333   -0.0643 N   0  0  0  0  0  0  0  0  0  0  0  0
   -0.1715    1.1630    0.3785 C   0  0  0  0  0  0  0  0  0  0  0  0
   -0.3127    2.2337    1.0287 O   0  0  0  0  0  0  0  0  0  0  0  0
    1.1852    0.6167    0.1404 C   0  0  0  0  0  0  0  0  0  0  0  0
    1.3219   -0.7257   -0.0400 N   0  0  0  0  0  0  0  0  0  0  0  0
    2.5338   -1.3119   -0.2118 C   0  0  0  0  0  0  0  0  0  0  0  0
    2.6223   -2.7234   -0.3956 N   0  0  0  0  0  0  0  0  0  0  0  0
    1.6951   -3.8660   -0.4668 C   0  0  0  0  0  0  0  0  0  0  0  0
    2.7438   -4.9074   -0.6801 C   0  0  0  0  0  0  0  0  0  0  0  0
    3.6698   -3.7385   -0.6054 C   0  0  0  0  0  0  0  0  0  0  0  0
    3.6814   -0.5203   -0.1999 C   0  0  0  0  0  0  0  0  0  0  0  0
    3.5612    0.8211   -0.0361 N   0  0  0  0  0  0  0  0  0  0  0  0
    2.3504    1.4206    0.1375 C   0  0  0  0  0  0  0  0  0  0  0  0
    2.2780    2.8541    0.2125 N   0  0  0  0  0  0  0  0  0  0  0  0
    3.3143    3.6719    0.7827 C   0  0  0  0  0  0  0  0  0  0  0  0
    3.4622    5.0028    0.3758 C   0  0  0  0  0  0  0  0  0  0  0  0
    4.4267    5.7824    0.9293 N   0  0  0  0  0  0  0  0  0  0  0  0
    5.2529    5.2944    1.8900 C   0  0  0  0  0  0  0  0  0  0  0  0
    5.1166    4.0129    2.3179 N   0  0  0  0  0  0  0  0  0  0  0  0
    4.1676    3.1969    1.7904 C   0  0  0  0  0  0  0  0  0  0  0  0
   -3.0595    2.2778   -0.0170 C   0  0  0  0  0  0  0  0  0  0  0  0
   -4.4049    2.3343   -0.0729 N   0  0  0  0  0  0  0  0  0  0  0  0
   -4.8701    1.0937   -0.1119 N   0  0  0  0  0  0  0  0  0  0  0  0
   -6.2966    0.7875   -0.1477 C   0  0  0  0  0  0  0  0  0  0  0  0
   -5.9046   -3.6439   -1.6357 H   0  0  0  0  0  0  0  0  0  0  0  0
   -4.1855   -3.8839   -1.1361 H   0  0  0  0  0  0  0  0  0  0  0  0
   -5.4714   -3.6273    0.1181 H   0  0  0  0  0  0  0  0  0  0  0  0
   -5.4384   -1.3548   -1.6752 H   0  0  0  0  0  0  0  0  0  0  0  0
   -1.1971   -0.5324   -0.4387 H   0  0  0  0  0  0  0  0  0  0  0  0
    1.1507   -3.9962    0.4950 H   0  0  0  0  0  0  0  0  0  0  0  0
    1.0073   -3.7656   -1.3358 H   0  0  0  0  0  0  0  0  0  0  0  0
    2.7028   -5.3708   -1.6898 H   0  0  0  0  0  0  0  0  0  0  0  0
    2.8491   -5.6060    0.1783 H   0  0  0  0  0  0  0  0  0  0  0  0
    4.2112   -3.5589   -1.5608 H   0  0  0  0  0  0  0  0  0  0  0  0
    4.3547   -3.7894    0.2702 H   0  0  0  0  0  0  0  0  0  0  0  0
    4.6607   -0.9610   -0.3323 H   0  0  0  0  0  0  0  0  0  0  0  0
    1.4924    3.3338   -0.2822 H   0  0  0  0  0  0  0  0  0  0  0  0
    2.8158    5.4175   -0.3867 H   0  0  0  0  0  0  0  0  0  0  0  0
    6.0153    5.9292    2.3202 H   0  0  0  0  0  0  0  0  0  0  0  0
    4.0699    2.1901    2.1727 H   0  0  0  0  0  0  0  0  0  0  0  0
   -2.4197    3.1490   -0.0137 H   0  0  0  0  0  0  0  0  0  0  0  0
   -6.8737    1.6228    0.3025 H   0  0  0  0  0  0  0  0  0  0  0  0
   -6.5110   -0.1331    0.4348 H   0  0  0  0  0  0  0  0  0  0  0  0
   -6.6255    0.6565   -1.1993 H   0  0  0  0  0  0  0  0  0  0  0  0
  1  2  1  0
  2  3  1  0
  3  4  2  0
  3  5  1  0
  5  6  2  0
  6  7  1  0
  7  8  1  0
  8  9  2  0
  8 10  1  0
 10 11  2  0
 11 12  1  0
 12 13  1  0
 13 14  1  0
 14 15  1  0
 15 16  1  0
 12 17  2  0
 17 18  1  0
 18 19  2  0
 19 20  1  0
 20 21  1  0
 21 22  2  0
 22 23  1  0
 23 24  2  0
 24 25  1  0
 25 26  2  0
  6 27  1  0
 27 28  2  0
 28 29  1  0
 29 30  1  0
 29  5  1  0
 19 10  1  0
 26 21  1  0
 16 13  1  0
  1 31  1  0
  1 32  1  0
  1 33  1  0
  2 34  1  0
  7 35  1  0
 14 36  1  0
 14 37  1  0
 15 38  1  0
 15 39  1  0
 16 40  1  0
 16 41  1  0
 17 42  1  0
 20 43  1  0
 22 44  1  0
 24 45  1  0
 26 46  1  0
 27 47  1  0
 30 48  1  0
 30 49  1  0
 30 50  1  0
M  END
$$$$

     RDKit          3D

 69 73  0  0  0  0  0  0  0  0999 V2000
    6.6913    2.6396    2.0025 C   0  0  0  0  0  0  0  0  0  0  0  0
    6.5622    3.2886    0.6274 C   0  0  0  0  0  0  0  0  0  0  0  0
    5.4375    2.7025   -0.1228 N   0  0  0  0  0  0  0  0  0  0  0  0
    4.2628    3.5267   -0.4353 C   0  0  0  0  0  0  0  0  0  0  0  0
    5.4382    1.3193   -0.5458 C   0  0  0  0  0  0  0  0  0  0  0  0
    6.6352    0.6325   -0.8276 C   0  0  0  0  0  0  0  0  0  0  0  0
    6.5900   -0.6955   -1.2565 C   0  0  0  0  0  0  0  0  0  0  0  0
    5.3581   -1.3417   -1.3998 C   0  0  0  0  0  0  0  0  0  0  0  0
    5.2788   -2.6708   -1.8365 C   0  0  0  0  0  0  0  0  0  0  0  0
    4.0335   -3.2934   -1.9610 C   0  0  0  0  0  0  0  0  0  0  0  0
    2.8536   -2.6014   -1.6372 C   0  0  0  0  0  0  0  0  0  0  0  0
    1.5415   -3.2758   -1.7608 C   0  0  0  0  0  0  0  0  0  0  0  0
    1.3783   -4.1355   -2.6697 O   0  0  0  0  0  0  0  0  0  0  0  0
    0.4468   -2.9662   -0.8760 N   0  0  0  0  0  0  0  0  0  0  0  0
    0.6729   -2.8091    0.5678 C   0  0  0  0  0  0  0  0  0  0  0  0
   -0.1268   -1.6213    1.1362 C   0  0  0  0  0  0  0  0  0  0  0  0
   -1.4713   -1.3345    0.3942 C   0  0  0  0  0  0  0  0  0  0  0  0
   -1.9555   -2.6133   -0.3364 C   0  0  0  0  0  0  0  0  0  0  0  0
   -0.9281   -3.0753   -1.3819 C   0  0  0  0  0  0  0  0  0  0  0  0
   -2.5510   -0.8977    1.4467 C   0  0  0  0  0  0  0  0  0  0  0  0
   -3.7117   -0.2176    0.7856 C   0  0  0  0  0  0  0  0  0  0  0  0
   -4.9686    0.0766    1.2616 C   0  0  0  0  0  0  0  0  0  0  0  0
   -5.5863    0.8673    0.3482 N   0  0  0  0  0  0  0  0  0  0  0  0
   -6.9170    1.4888    0.4954 C   0  0  0  0  0  0  0  0  0  0  0  0
   -7.9488    0.4324    0.9424 C   0  0  0  0  0  0  0  0  0  0  0  0
   -6.8361    2.6109    1.5455 C   0  0  0  0  0  0  0  0  0  0  0  0
   -7.3824    2.0866   -0.8509 C   0  0  0  0  0  0  0  0  0  0  0  0
   -4.7492    1.1272   -0.6529 N   0  0  0  0  0  0  0  0  0  0  0  0
   -3.6125    0.4606   -0.3903 C   0  0  0  0  0  0  0  0  0  0  0  0
   -2.3566    0.5126   -1.1209 C   0  0  0  0  0  0  0  0  0  0  0  0
   -2.2180    1.2447   -2.1351 O   0  0  0  0  0  0  0  0  0  0  0  0
   -1.2609   -0.2651   -0.6146 N   0  0  0  0  0  0  0  0  0  0  0  0
    2.9344   -1.2607   -1.2232 C   0  0  0  0  0  0  0  0  0  0  0  0
    4.1779   -0.6311   -1.1023 C   0  0  0  0  0  0  0  0  0  0  0  0
    4.2508    0.6655   -0.6967 N   0  0  0  0  0  0  0  0  0  0  0  0
    6.8929    1.5536    1.9079 H   0  0  0  0  0  0  0  0  0  0  0  0
    5.7549    2.7889    2.5804 H   0  0  0  0  0  0  0  0  0  0  0  0
    7.5309    3.1073    2.5591 H   0  0  0  0  0  0  0  0  0  0  0  0
    7.5089    3.1832    0.0598 H   0  0  0  0  0  0  0  0  0  0  0  0
    6.4180    4.3799    0.7744 H   0  0  0  0  0  0  0  0  0  0  0  0
    4.3964    4.5794   -0.1102 H   0  0  0  0  0  0  0  0  0  0  0  0
    4.0828    3.5226   -1.5312 H   0  0  0  0  0  0  0  0  0  0  0  0
    3.3677    3.1167    0.0806 H   0  0  0  0  0  0  0  0  0  0  0  0
    7.5985    1.1120   -0.7370 H   0  0  0  0  0  0  0  0  0  0  0  0
    7.5148   -1.2142   -1.4786 H   0  0  0  0  0  0  0  0  0  0  0  0
    6.1765   -3.2270   -2.0792 H   0  0  0  0  0  0  0  0  0  0  0  0
    3.9932   -4.3237   -2.2935 H   0  0  0  0  0  0  0  0  0  0  0  0
    1.7493   -2.6768    0.8053 H   0  0  0  0  0  0  0  0  0  0  0  0
    0.3495   -3.7438    1.0763 H   0  0  0  0  0  0  0  0  0  0  0  0
    0.5112   -0.7104    1.1198 H   0  0  0  0  0  0  0  0  0  0  0  0
   -0.3120   -1.8425    2.2108 H   0  0  0  0  0  0  0  0  0  0  0  0
   -2.1135   -3.4312    0.4006 H   0  0  0  0  0  0  0  0  0  0  0  0
   -2.9283   -2.4298   -0.8430 H   0  0  0  0  0  0  0  0  0  0  0  0
   -1.0295   -2.4411   -2.2892 H   0  0  0  0  0  0  0  0  0  0  0  0
   -1.1417   -4.1268   -1.6685 H   0  0  0  0  0  0  0  0  0  0  0  0
   -2.1090   -0.1740    2.1658 H   0  0  0  0  0  0  0  0  0  0  0  0
   -2.9122   -1.7756    2.0257 H   0  0  0  0  0  0  0  0  0  0  0  0
   -5.3773   -0.2194    2.2184 H   0  0  0  0  0  0  0  0  0  0  0  0
   -7.9634   -0.4192    0.2288 H   0  0  0  0  0  0  0  0  0  0  0  0
   -8.9675    0.8742    0.9859 H   0  0  0  0  0  0  0  0  0  0  0  0
   -7.7113    0.0415    1.9530 H   0  0  0  0  0  0  0  0  0  0  0  0
   -6.5323    2.2009    2.5319 H   0  0  0  0  0  0  0  0  0  0  0  0
   -6.0868    3.3700    1.2396 H   0  0  0  0  0  0  0  0  0  0  0  0
   -7.8193    3.1140    1.6608 H   0  0  0  0  0  0  0  0  0  0  0  0
   -7.4201    1.2985   -1.6323 H   0  0  0  0  0  0  0  0  0  0  0  0
   -8.3965    2.5318   -0.7560 H   0  0  0  0  0  0  0  0  0  0  0  0
   -6.6869    2.8844   -1.1906 H   0  0  0  0  0  0  0  0  0  0  0  0
   -0.3355   -0.1769   -1.0920 H   0  0  0  0  0  0  0  0  0  0  0  0
    2.0346   -0.7027   -0.9999 H   0  0  0  0  0  0  0  0  0  0  0  0
  1  2  1  0
  2  3  1  0
  3  4  1  0
  3  5  1  0
  5  6  2  0
  6  7  1  0
  7  8  2  0
  8  9  1  0
  9 10  2  0
 10 11  1  0
 11 12  1  0
 12 13  2  0
 12 14  1  0
 14 15  1  0
 15 16  1  0
 16 17  1  0
 17 18  1  0
 18 19  1  0
 17 20  1  0
 20 21  1  0
 21 22  2  0
 22 23  1  0
 23 24  1  0
 24 25  1  0
 24 26  1  0
 24 27  1  0
 23 28  1  0
 28 29  2  0
 29 30  1  0
 30 31  2  0
 30 32  1  0
 11 33  2  0
 33 34  1  0
 34 35  2  0
 35  5  1  0
 34  8  1  0
 19 14  1  0
 29 21  1  0
 32 17  1  0
  1 36  1  0
  1 37  1  0
  1 38  1  0
  2 39  1  0
  2 40  1  0
  4 41  1  0
  4 42  1  0
  4 43  1  0
  6 44  1  0
  7 45  1  0
  9 46  1  0
 10 47  1  0
 15 48  1  0
 15 49  1  0
 16 50  1  0
 16 51  1  0
 18 52  1  0
 18 53  1  0
 19 54  1  0
 19 55  1  0
 20 56  1  0
 20 57  1  0
 22 58  1  0
 25 59  1  0
 25 60  1  0
 25 61  1  0
 26 62  1  0
 26 63  1  0
 26 64  1  0
 27 65  1  0
 27 66  1  0
 27 67  1  0
 32 68  1  0
 33 69  1  0
M  END
$$$$

     RDKit          3D

 55 59  0  0  0  0  0  0  0  0999 V2000
   -2.0035    5.4446    0.9730 C   0  0  0  0  0  0  0  0  0  0  0  0
   -2.9916    4.4867    0.4842 N   0  0  0  0  0  0  0  0  0  0  0  0
   -4.3000    4.6613    0.6511 N   0  0  0  0  0  0  0  0  0  0  0  0
   -4.9318    3.6183    0.0811 C   0  0  0  0  0  0  0  0  0  0  0  0
   -3.9921    2.7492   -0.4512 C   0  0  0  0  0  0  0  0  0  0  0  0
   -4.2920    1.5007   -1.1671 C   0  0  0  0  0  0  0  0  0  0  0  0
   -4.9563    1.5629   -2.2447 O   0  0  0  0  0  0  0  0  0  0  0  0
   -3.8108    0.2272   -0.6830 N   0  0  0  0  0  0  0  0  0  0  0  0
   -3.9116   -0.9966   -1.4591 C   0  0  0  0  0  0  0  0  0  0  0  0
   -3.5539   -2.1321   -0.4960 C   0  0  0  0  0  0  0  0  0  0  0  0
   -2.8756   -1.4626    0.7013 C   0  0  0  0  0  0  0  0  0  0  0  0
   -3.2798    0.0103    0.6521 C   0  0  0  0  0  0  0  0  0  0  0  0
   -2.7572    3.3352   -0.1981 C   0  0  0  0  0  0  0  0  0  0  0  0
   -1.4228    2.8431   -0.6341 C   0  0  0  0  0  0  0  0  0  0  0  0
   -0.3807    3.4338   -0.2513 O   0  0  0  0  0  0  0  0  0  0  0  0
   -1.3072    1.7342   -1.5328 N   0  0  0  0  0  0  0  0  0  0  0  0
   -0.2925    0.7157   -1.4494 C   0  0  0  0  0  0  0  0  0  0  0  0
   -0.1683   -0.2266   -2.4983 C   0  0  0  0  0  0  0  0  0  0  0  0
    0.8163   -1.2238   -2.4558 C   0  0  0  0  0  0  0  0  0  0  0  0
    1.6556   -1.2498   -1.3461 C   0  0  0  0  0  0  0  0  0  0  0  0
    2.6834   -2.0920   -1.1307 N   0  0  0  0  0  0  0  0  0  0  0  0
    3.1447   -1.6454    0.0702 C   0  0  0  0  0  0  0  0  0  0  0  0
    4.2983   -2.1977    0.7326 N   0  0  0  0  0  0  0  0  0  0  0  0
    4.9752   -3.3789    0.1875 C   0  0  0  0  0  0  0  0  0  0  0  0
    6.4654   -3.3204    0.5327 C   0  0  0  0  0  0  0  0  0  0  0  0
    6.6518   -3.1402    1.9238 O   0  0  0  0  0  0  0  0  0  0  0  0
    6.1585   -1.8725    2.3079 C   0  0  0  0  0  0  0  0  0  0  0  0
    4.6385   -1.7803    2.0948 C   0  0  0  0  0  0  0  0  0  0  0  0
    2.4414   -0.5951    0.5577 N   0  0  0  0  0  0  0  0  0  0  0  0
    1.5129   -0.3706   -0.3512 N   0  0  0  0  0  0  0  0  0  0  0  0
    0.5725    0.6048   -0.3369 C   0  0  0  0  0  0  0  0  0  0  0  0
   -1.3160    4.9432    1.6959 H   0  0  0  0  0  0  0  0  0  0  0  0
   -2.5110    6.2866    1.4980 H   0  0  0  0  0  0  0  0  0  0  0  0
   -1.4211    5.8617    0.1164 H   0  0  0  0  0  0  0  0  0  0  0  0
   -6.0094    3.4968    0.0623 H   0  0  0  0  0  0  0  0  0  0  0  0
   -4.9495   -1.1270   -1.8507 H   0  0  0  0  0  0  0  0  0  0  0  0
   -3.1864   -0.9563   -2.3061 H   0  0  0  0  0  0  0  0  0  0  0  0
   -4.4926   -2.6480   -0.1605 H   0  0  0  0  0  0  0  0  0  0  0  0
   -2.8748   -2.8823   -0.9768 H   0  0  0  0  0  0  0  0  0  0  0  0
   -3.1958   -1.9320    1.6549 H   0  0  0  0  0  0  0  0  0  0  0  0
   -1.7686   -1.5541    0.6040 H   0  0  0  0  0  0  0  0  0  0  0  0
   -2.3948    0.6605    0.8391 H   0  0  0  0  0  0  0  0  0  0  0  0
   -4.0723    0.2247    1.4033 H   0  0  0  0  0  0  0  0  0  0  0  0
   -1.9730    1.7017   -2.3422 H   0  0  0  0  0  0  0  0  0  0  0  0
   -0.8337   -0.1816   -3.3502 H   0  0  0  0  0  0  0  0  0  0  0  0
    0.9233   -1.9383   -3.2614 H   0  0  0  0  0  0  0  0  0  0  0  0
    4.5304   -4.2922    0.6366 H   0  0  0  0  0  0  0  0  0  0  0  0
    4.8596   -3.4320   -0.9156 H   0  0  0  0  0  0  0  0  0  0  0  0
    6.9385   -4.2771    0.2340 H   0  0  0  0  0  0  0  0  0  0  0  0
    6.9661   -2.5113   -0.0459 H   0  0  0  0  0  0  0  0  0  0  0  0
    6.3761   -1.7245    3.3855 H   0  0  0  0  0  0  0  0  0  0  0  0
    6.6802   -1.0540    1.7554 H   0  0  0  0  0  0  0  0  0  0  0  0
    4.1180   -2.4415    2.8199 H   0  0  0  0  0  0  0  0  0  0  0  0
    4.3186   -0.7329    2.2810 H   0  0  0  0  0  0  0  0  0  0  0  0
    0.5017    1.2663    0.5149 H   0  0  0  0  0  0  0  0  0  0  0  0
  1  2  1  0
  2  3  1  0
  3  4  2  0
  4  5  1  0
  5  6  1  0
  6  7  2  0
  6  8  1  0
  8  9  1  0
  9 10  1  0
 10 11  1  0
 11 12  1  0
  5 13  2  0
 13 14  1  0
 14 15  2  0
 14 16  1  0
 16 17  1  0
 17 18  1  0
 18 19  2  0
 19 20  1  0
 20 21  2  0
 21 22  1  0
 22 23  1  0
 23 24  1  0
 24 25  1  0
 25 26  1  0
 26 27  1  0
 27 28  1  0
 22 29  2  0
 29 30  1  0
 30 31  1  0
 13  2  1  0
 31 17  2  0
 12  8  1  0
 30 20  1  0
 28 23  1  0
  1 32  1  0
  1 33  1  0
  1 34  1  0
  4 35  1  0
  9 36  1  0
  9 37  1  0
 10 38  1  0
 10 39  1  0
 11 40  1  0
 11 41  1  0
 12 42  1  0
 12 43  1  0
 16 44  1  0
 18 45  1  0
 19 46  1  0
 24 47  1  0
 24 48  1  0
 25 49  1  0
 25 50  1  0
 27 51  1  0
 27 52  1  0
 28 53  1  0
 28 54  1  0
 31 55  1  0
M  END
$$$$

     RDKit          3D

 50 53  0  0  0  0  0  0  0  0999 V2000
   -4.6250   -0.5525   -3.2374 C   0  0  0  0  0  0  0  0  0  0  0  0
   -4.1205   -0.4840   -1.8304 C   0  0  0  0  0  0  0  0  0  0  0  0
   -4.9563   -0.7466   -0.7419 C   0  0  0  0  0  0  0  0  0  0  0  0
   -4.4505   -0.6852    0.5153 N   0  0  0  0  0  0  0  0  0  0  0  0
   -3.1514   -0.3548    0.7551 C   0  0  0  0  0  0  0  0  0  0  0  0
   -2.6499   -0.3985    2.1014 N   0  0  0  0  0  0  0  0  0  0  0  0
   -3.4513   -0.0973    3.2568 C   0  0  0  0  0  0  0  0  0  0  0  0
   -3.1198   -0.6421    4.5026 C   0  0  0  0  0  0  0  0  0  0  0  0
   -3.8632   -0.3411    5.5987 N   0  0  0  0  0  0  0  0  0  0  0  0
   -4.9274    0.4977    5.5116 C   0  0  0  0  0  0  0  0  0  0  0  0
   -5.2574    1.0567    4.3190 N   0  0  0  0  0  0  0  0  0  0  0  0
   -4.5436    0.7816    3.1966 C   0  0  0  0  0  0  0  0  0  0  0  0
   -2.3053   -0.0732   -0.3436 C   0  0  0  0  0  0  0  0  0  0  0  0
   -0.8940    0.3500   -0.1854 C   0  0  0  0  0  0  0  0  0  0  0  0
   -0.5252    0.9218    0.8759 O   0  0  0  0  0  0  0  0  0  0  0  0
    0.0352    0.1799   -1.2696 N   0  0  0  0  0  0  0  0  0  0  0  0
    1.4562    0.3614   -1.1413 C   0  0  0  0  0  0  0  0  0  0  0  0
    2.1947    0.2640    0.0234 C   0  0  0  0  0  0  0  0  0  0  0  0
    3.5073    0.4334   -0.3957 C   0  0  0  0  0  0  0  0  0  0  0  0
    4.7220    0.4056    0.4428 C   0  0  0  0  0  0  0  0  0  0  0  0
    4.6588    0.2325    1.8369 C   0  0  0  0  0  0  0  0  0  0  0  0
    5.8409    0.2151    2.5805 C   0  0  0  0  0  0  0  0  0  0  0  0
    7.0698    0.3693    1.9384 C   0  0  0  0  0  0  0  0  0  0  0  0
    7.0985    0.5402    0.5537 C   0  0  0  0  0  0  0  0  0  0  0  0
    5.9378    0.5546   -0.1545 N   0  0  0  0  0  0  0  0  0  0  0  0
    3.5403    0.6101   -1.7332 N   0  0  0  0  0  0  0  0  0  0  0  0
    2.2947    0.5694   -2.1783 N   0  0  0  0  0  0  0  0  0  0  0  0
    1.9479    0.6756   -3.5943 C   0  0  0  0  0  0  0  0  0  0  0  0
    1.9199   -0.7077   -4.2376 C   0  0  0  0  0  0  0  0  0  0  0  0
    1.5839   -0.5872   -5.5913 O   0  0  0  0  0  0  0  0  0  0  0  0
   -2.8234   -0.1539   -1.6000 N   0  0  0  0  0  0  0  0  0  0  0  0
   -4.0429   -1.3104   -3.8022 H   0  0  0  0  0  0  0  0  0  0  0  0
   -4.4989    0.4372   -3.7239 H   0  0  0  0  0  0  0  0  0  0  0  0
   -5.6998   -0.8314   -3.2719 H   0  0  0  0  0  0  0  0  0  0  0  0
   -5.9959   -1.0103   -0.8872 H   0  0  0  0  0  0  0  0  0  0  0  0
   -1.6925   -0.7871    2.2578 H   0  0  0  0  0  0  0  0  0  0  0  0
   -2.2755   -1.3120    4.6003 H   0  0  0  0  0  0  0  0  0  0  0  0
   -5.5081    0.7269    6.3945 H   0  0  0  0  0  0  0  0  0  0  0  0
   -4.8182    1.2643    2.2687 H   0  0  0  0  0  0  0  0  0  0  0  0
   -0.3403   -0.0860   -2.2061 H   0  0  0  0  0  0  0  0  0  0  0  0
    1.8364    0.0546    1.0210 H   0  0  0  0  0  0  0  0  0  0  0  0
    3.7148    0.1140    2.3503 H   0  0  0  0  0  0  0  0  0  0  0  0
    5.8040    0.0826    3.6541 H   0  0  0  0  0  0  0  0  0  0  0  0
    7.9903    0.3570    2.5076 H   0  0  0  0  0  0  0  0  0  0  0  0
    8.0432    0.6616    0.0410 H   0  0  0  0  0  0  0  0  0  0  0  0
    2.7035    1.3057   -4.1123 H   0  0  0  0  0  0  0  0  0  0  0  0
    0.9612    1.1734   -3.7118 H   0  0  0  0  0  0  0  0  0  0  0  0
    1.1694   -1.3458   -3.7205 H   0  0  0  0  0  0  0  0  0  0  0  0
    2.9235   -1.1793   -4.1404 H   0  0  0  0  0  0  0  0  0  0  0  0
    1.5817   -1.5098   -5.9571 H   0  0  0  0  0  0  0  0  0  0  0  0
  1  2  1  0
  2  3  2  0
  3  4  1  0
  4  5  2  0
  5  6  1  0
  6  7  1  0
  7  8  2  0
  8  9  1  0
  9 10  2  0
 10 11  1  0
 11 12  2  0
  5 13  1  0
 13 14  1  0
 14 15  2  0
 14 16  1  0
 16 17  1  0
 17 18  2  0
 18 19  1  0
 19 20  1  0
 20 21  2  0
 21 22  1  0
 22 23  2  0
 23 24  1  0
 24 25  2  0
 19 26  2  0
 26 27  1  0
 27 28  1  0
 28 29  1  0
 29 30  1  0
 13 31  2  0
 31  2  1  0
 12  7  1  0
 27 17  1  0
 25 20  1  0
  1 32  1  0
  1 33  1  0
  1 34  1  0
  3 35  1  0
  6 36  1  0
  8 37  1  0
 10 38  1  0
 12 39  1  0
 16 40  1  0
 18 41  1  0
 21 42  1  0
 22 43  1  0
 23 44  1  0
 24 45  1  0
 28 46  1  0
 28 47  1  0
 29 48  1  0
 29 49  1  0
 30 50  1  0
M  END
$$$$

     RDKit          3D

 80 84  0  0  0  0  0  0  0  0999 V2000
    9.6486   -0.3538    1.1657 C   0  0  0  0  0  0  0  0  0  0  0  0
    8.9441    0.9533    0.8060 C   0  0  0  0  0  0  0  0  0  0  0  0
    7.7488    0.7467   -0.1384 C   0  0  0  0  0  0  0  0  0  0  0  0
    6.5895   -0.0396    0.4916 C   0  0  0  0  0  0  0  0  0  0  0  0
    6.1181    0.6173    1.7136 N   0  0  0  0  0  0  0  0  0  0  0  0
    4.9142   -0.3665    2.4875 S   0  0  0  0  0  6  0  0  0  0  0  0
    4.4036    0.3498    3.7063 O   0  0  0  0  0  0  0  0  0  0  0  0
    5.5306   -1.6673    2.9249 O   0  0  0  0  0  0  0  0  0  0  0  0
    3.5669   -0.6660    1.3916 C   0  0  0  0  0  0  0  0  0  0  0  0
    3.3866   -1.9243    0.8087 C   0  0  0  0  0  0  0  0  0  0  0  0
    2.3268   -2.1420   -0.0743 C   0  0  0  0  0  0  0  0  0  0  0  0
    1.4286   -1.1040   -0.3812 C   0  0  0  0  0  0  0  0  0  0  0  0
    1.6017    0.1602    0.2158 C   0  0  0  0  0  0  0  0  0  0  0  0
    2.6847    0.3735    1.0797 C   0  0  0  0  0  0  0  0  0  0  0  0
    0.8000    1.2925   -0.1469 N   0  0  0  0  0  0  0  0  0  0  0  0
   -0.4623    1.3449   -0.4621 C   0  0  0  0  0  0  0  0  0  0  0  0
   -1.0029    2.6679   -0.8089 C   0  0  0  0  0  0  0  0  0  0  0  0
   -1.0327    3.0835   -2.1470 C   0  0  0  0  0  0  0  0  0  0  0  0
   -1.4825    4.3672   -2.4762 C   0  0  0  0  0  0  0  0  0  0  0  0
   -1.9222    5.2474   -1.4703 C   0  0  0  0  0  0  0  0  0  0  0  0
   -2.3883    6.6078   -1.8178 C   0  0  0  0  0  0  0  0  0  0  0  0
   -2.8924    7.3561   -0.9357 O   0  0  0  0  0  0  0  0  0  0  0  0
   -2.2735    7.0778   -3.1251 O   0  0  0  0  0  0  0  0  0  0  0  0
   -1.8929    4.8211   -0.1293 C   0  0  0  0  0  0  0  0  0  0  0  0
   -1.4205    3.5472    0.1985 C   0  0  0  0  0  0  0  0  0  0  0  0
   -1.3788    0.1714   -0.3835 C   0  0  0  0  0  0  0  0  0  0  0  0
   -2.6835    0.3483    0.1018 C   0  0  0  0  0  0  0  0  0  0  0  0
   -3.6030   -0.7178    0.1909 C   0  0  0  0  0  0  0  0  0  0  0  0
   -3.2285   -1.9857   -0.3405 C   0  0  0  0  0  0  0  0  0  0  0  0
   -1.9058   -2.1578   -0.7947 C   0  0  0  0  0  0  0  0  0  0  0  0
   -0.9882   -1.1003   -0.8241 C   0  0  0  0  0  0  0  0  0  0  0  0
    0.3473   -1.3317   -1.2939 N   0  0  0  0  0  0  0  0  0  0  0  0
    0.5723   -2.0941   -2.5269 C   0  0  0  0  0  0  0  0  0  0  0  0
   -4.1804   -3.1919   -0.3542 C   0  0  0  0  0  0  0  0  0  0  0  0
   -4.1682   -3.8849   -1.7396 C   0  0  0  0  0  0  0  0  0  0  0  0
   -3.7226   -4.2089    0.7155 C   0  0  0  0  0  0  0  0  0  0  0  0
   -5.6435   -2.7644   -0.0833 C   0  0  0  0  0  0  0  0  0  0  0  0
   -5.7541   -1.7710    1.0680 C   0  0  0  0  0  0  0  0  0  0  0  0
   -4.9985   -0.4501    0.7776 C   0  0  0  0  0  0  0  0  0  0  0  0
   -4.9000    0.3107    2.1224 C   0  0  0  0  0  0  0  0  0  0  0  0
   -5.8059    0.4136   -0.2191 C   0  0  0  0  0  0  0  0  0  0  0  0
    9.9385   -0.9061    0.2462 H   0  0  0  0  0  0  0  0  0  0  0  0
   10.5670   -0.1330    1.7509 H   0  0  0  0  0  0  0  0  0  0  0  0
    8.9926   -0.9938    1.7908 H   0  0  0  0  0  0  0  0  0  0  0  0
    8.6156    1.4669    1.7378 H   0  0  0  0  0  0  0  0  0  0  0  0
    9.6794    1.6147    0.2972 H   0  0  0  0  0  0  0  0  0  0  0  0
    7.3752    1.7458   -0.4559 H   0  0  0  0  0  0  0  0  0  0  0  0
    8.0869    0.2198   -1.0574 H   0  0  0  0  0  0  0  0  0  0  0  0
    5.7635   -0.0972   -0.2530 H   0  0  0  0  0  0  0  0  0  0  0  0
    6.9203   -1.0769    0.7104 H   0  0  0  0  0  0  0  0  0  0  0  0
    5.6535    1.5140    1.4468 H   0  0  0  0  0  0  0  0  0  0  0  0
    4.0670   -2.7363    1.0298 H   0  0  0  0  0  0  0  0  0  0  0  0
    2.2031   -3.1234   -0.5140 H   0  0  0  0  0  0  0  0  0  0  0  0
    2.8424    1.3556    1.5074 H   0  0  0  0  0  0  0  0  0  0  0  0
   -0.6914    2.4197   -2.9345 H   0  0  0  0  0  0  0  0  0  0  0  0
   -1.4822    4.6726   -3.5172 H   0  0  0  0  0  0  0  0  0  0  0  0
   -2.5894    8.0077   -3.3709 H   0  0  0  0  0  0  0  0  0  0  0  0
   -2.2165    5.4775    0.6676 H   0  0  0  0  0  0  0  0  0  0  0  0
   -1.3820    3.2425    1.2373 H   0  0  0  0  0  0  0  0  0  0  0  0
   -2.9809    1.3309    0.4277 H   0  0  0  0  0  0  0  0  0  0  0  0
   -1.5666   -3.1344   -1.1114 H   0  0  0  0  0  0  0  0  0  0  0  0
    1.5673   -1.8409   -2.9555 H   0  0  0  0  0  0  0  0  0  0  0  0
    0.5296   -3.1849   -2.3138 H   0  0  0  0  0  0  0  0  0  0  0  0
   -0.2022   -1.8356   -3.2810 H   0  0  0  0  0  0  0  0  0  0  0  0
   -4.9404   -4.6830   -1.7806 H   0  0  0  0  0  0  0  0  0  0  0  0
   -3.1977   -4.3662   -1.9657 H   0  0  0  0  0  0  0  0  0  0  0  0
   -4.3926   -3.1489   -2.5414 H   0  0  0  0  0  0  0  0  0  0  0  0
   -3.6709   -3.7382    1.7195 H   0  0  0  0  0  0  0  0  0  0  0  0
   -2.7097   -4.5971    0.4809 H   0  0  0  0  0  0  0  0  0  0  0  0
   -4.4178   -5.0758    0.7679 H   0  0  0  0  0  0  0  0  0  0  0  0
   -6.0893   -2.3073   -0.9926 H   0  0  0  0  0  0  0  0  0  0  0  0
   -6.2695   -3.6547    0.1482 H   0  0  0  0  0  0  0  0  0  0  0  0
   -5.3672   -2.2452    1.9972 H   0  0  0  0  0  0  0  0  0  0  0  0
   -6.8314   -1.5637    1.2543 H   0  0  0  0  0  0  0  0  0  0  0  0
   -4.5316    1.3497    1.9949 H   0  0  0  0  0  0  0  0  0  0  0  0
   -4.2203   -0.2210    2.8254 H   0  0  0  0  0  0  0  0  0  0  0  0
   -5.9034    0.3871    2.5964 H   0  0  0  0  0  0  0  0  0  0  0  0
   -5.3476    1.4184   -0.3333 H   0  0  0  0  0  0  0  0  0  0  0  0
   -6.8520    0.5580    0.1330 H   0  0  0  0  0  0  0  0  0  0  0  0
   -5.8306   -0.0531   -1.2271 H   0  0  0  0  0  0  0  0  0  0  0  0
  1  2  1  0
  2  3  1  0
  3  4  1  0
  4  5  1  0
  5  6  1  0
  6  7  2  0
  6  8  2  0
  6  9  1  0
  9 10  2  0
 10 11  1  0
 11 12  2  0
 12 13  1  0
 13 14  2  0
 13 15  1  0
 15 16  2  0
 16 17  1  0
 17 18  2  0
 18 19  1  0
 19 20  2  0
 20 21  1  0
 21 22  2  0
 21 23  1  0
 20 24  1  0
 24 25  2  0
 16 26  1  0
 26 27  2  0
 27 28  1  0
 28 29  2  0
 29 30  1  0
 30 31  2  0
 31 32  1  0
 32 33  1  0
 29 34  1  0
 34 35  1  0
 34 36  1  0
 34 37  1  0
 37 38  1  0
 38 39  1  0
 39 40  1  0
 39 41  1  0
 14  9  1  0
 25 17  1  0
 31 26  1  0
 32 12  1  0
 39 28  1  0
  1 42  1  0
  1 43  1  0
  1 44  1  0
  2 45  1  0
  2 46  1  0
  3 47  1  0
  3 48  1  0
  4 49  1  0
  4 50  1  0
  5 51  1  0
 10 52  1  0
 11 53  1  0
 14 54  1  0
 18 55  1  0
 19 56  1  0
 23 57  1  0
 24 58  1  0
 25 59  1  0
 27 60  1  0
 30 61  1  0
 33 62  1  0
 33 63  1  0
 33 64  1  0
 35 65  1  0
 35 66  1  0
 35 67  1  0
 36 68  1  0
 36 69  1  0
 36 70  1  0
 37 71  1  0
 37 72  1  0
 38 73  1  0
 38 74  1  0
 40 75  1  0
 40 76  1  0
 40 77  1  0
 41 78  1  0
 41 79  1  0
 41 80  1  0
M  END
$$$$

     RDKit          3D

 48 50  0  0  0  0  0  0  0  0999 V2000
    5.1120    3.7922    0.0395 C   0  0  0  0  0  0  0  0  0  0  0  0
    4.9095    2.3481   -0.0200 N   0  0  0  0  0  0  0  0  0  0  0  0
    3.7983    1.6862    0.6015 C   0  0  0  0  0  0  0  0  0  0  0  0
    2.8324    2.3597    1.0520 O   0  0  0  0  0  0  0  0  0  0  0  0
    3.7518    0.2121    0.6903 C   0  0  0  0  0  0  0  0  0  0  0  0
    2.6268   -0.5798    0.5515 C   0  0  0  0  0  0  0  0  0  0  0  0
    1.3144   -0.1432    0.1624 N   0  0  0  0  0  0  0  0  0  0  0  0
    0.1205   -0.9169    0.3727 C   0  0  0  0  0  0  0  0  0  0  0  0
    0.1540   -1.9328    1.1183 O   0  0  0  0  0  0  0  0  0  0  0  0
   -1.1638   -0.4821   -0.2288 C   0  0  0  0  0  0  0  0  0  0  0  0
   -1.2955    0.8187   -0.6069 N   0  0  0  0  0  0  0  0  0  0  0  0
   -2.4510    1.3018   -1.1290 C   0  0  0  0  0  0  0  0  0  0  0  0
   -2.5266    2.6475   -1.4966 O   0  0  0  0  0  0  0  0  0  0  0  0
   -3.7020    3.2311   -2.0508 C   0  0  0  0  0  0  0  0  0  0  0  0
   -3.4579    4.7062   -2.3406 C   0  0  0  0  0  0  0  0  0  0  0  0
   -4.6010    5.2686   -2.8783 F   0  0  0  0  0  0  0  0  0  0  0  0
   -2.4186    4.8422   -3.2432 F   0  0  0  0  0  0  0  0  0  0  0  0
   -3.1350    5.3682   -1.1699 F   0  0  0  0  0  0  0  0  0  0  0  0
   -3.5169    0.4741   -1.2877 N   0  0  0  0  0  0  0  0  0  0  0  0
   -3.4452   -0.8328   -0.9331 C   0  0  0  0  0  0  0  0  0  0  0  0
   -2.2644   -1.3543   -0.3871 C   0  0  0  0  0  0  0  0  0  0  0  0
   -2.1610   -2.7603   -0.1056 N   0  0  0  0  0  0  0  0  0  0  0  0
   -3.1757   -3.5171    0.5775 C   0  0  0  0  0  0  0  0  0  0  0  0
   -3.2266   -4.9085    0.4376 C   0  0  0  0  0  0  0  0  0  0  0  0
   -4.1708   -5.6267    1.0989 N   0  0  0  0  0  0  0  0  0  0  0  0
   -5.0706   -5.0155    1.9118 C   0  0  0  0  0  0  0  0  0  0  0  0
   -5.0306   -3.6688    2.0802 N   0  0  0  0  0  0  0  0  0  0  0  0
   -4.1049   -2.9111    1.4369 C   0  0  0  0  0  0  0  0  0  0  0  0
    3.0658   -1.8808    0.7202 C   0  0  0  0  0  0  0  0  0  0  0  0
    4.3883   -1.8639    0.9793 N   0  0  0  0  0  0  0  0  0  0  0  0
    4.7949   -0.6023    0.9738 N   0  0  0  0  0  0  0  0  0  0  0  0
    6.1759   -0.2180    1.2485 C   0  0  0  0  0  0  0  0  0  0  0  0
    4.3468    4.2883    0.6722 H   0  0  0  0  0  0  0  0  0  0  0  0
    5.0599    4.2143   -0.9856 H   0  0  0  0  0  0  0  0  0  0  0  0
    6.1140    4.0045    0.4669 H   0  0  0  0  0  0  0  0  0  0  0  0
    5.5884    1.7883   -0.5815 H   0  0  0  0  0  0  0  0  0  0  0  0
    1.2316    0.7922   -0.2936 H   0  0  0  0  0  0  0  0  0  0  0  0
   -4.5440    3.1315   -1.3314 H   0  0  0  0  0  0  0  0  0  0  0  0
   -3.9690    2.7093   -2.9956 H   0  0  0  0  0  0  0  0  0  0  0  0
   -4.3020   -1.4725   -1.0995 H   0  0  0  0  0  0  0  0  0  0  0  0
   -1.3218   -3.2691   -0.4655 H   0  0  0  0  0  0  0  0  0  0  0  0
   -2.5203   -5.4208   -0.2026 H   0  0  0  0  0  0  0  0  0  0  0  0
   -5.8155   -5.6028    2.4309 H   0  0  0  0  0  0  0  0  0  0  0  0
   -4.0875   -1.8437    1.6101 H   0  0  0  0  0  0  0  0  0  0  0  0
    2.4815   -2.7856    0.6282 H   0  0  0  0  0  0  0  0  0  0  0  0
    6.6708   -1.0000    1.8625 H   0  0  0  0  0  0  0  0  0  0  0  0
    6.2079    0.7367    1.8145 H   0  0  0  0  0  0  0  0  0  0  0  0
    6.7323   -0.1123    0.2944 H   0  0  0  0  0  0  0  0  0  0  0  0
  1  2  1  0
  2  3  1  0
  3  4  2  0
  3  5  1  0
  5  6  2  0
  6  7  1  0
  7  8  1  0
  8  9  2  0
  8 10  1  0
 10 11  2  0
 11 12  1  0
 12 13  1  0
 13 14  1  0
 14 15  1  0
 15 16  1  0
 15 17  1  0
 15 18  1  0
 12 19  2  0
 19 20  1  0
 20 21  2  0
 21 22  1  0
 22 23  1  0
 23 24  2  0
 24 25  1  0
 25 26  2  0
 26 27  1  0
 27 28  2  0
  6 29  1  0
 29 30  2  0
 30 31  1  0
 31 32  1  0
 31  5  1  0
 21 10  1  0
 28 23  1  0
  1 33  1  0
  1 34  1  0
  1 35  1  0
  2 36  1  0
  7 37  1  0
 14 38  1  0
 14 39  1  0
 20 40  1  0
 22 41  1  0
 24 42  1  0
 26 43  1  0
 28 44  1  0
 29 45  1  0
 32 46  1  0
 32 47  1  0
 32 48  1  0
M  END
$$$$

     RDKit          3D

 71 74  0  0  0  0  0  0  0  0999 V2000
    3.4057    1.0207   -5.3330 C   0  0  0  0  0  0  0  0  0  0  0  0
    3.7702    0.8459   -3.8621 C   0  0  0  0  0  0  0  0  0  0  0  0
    2.6304    0.3476   -3.0890 N   0  0  0  0  0  0  0  0  0  0  0  0
    2.7593    0.0670   -1.6817 C   0  0  0  0  0  0  0  0  0  0  0  0
    3.8642    0.5291   -1.0299 N   0  0  0  0  0  0  0  0  0  0  0  0
    4.0792    0.3277    0.2942 C   0  0  0  0  0  0  0  0  0  0  0  0
    5.2311    0.8337    0.9037 C   0  0  0  0  0  0  0  0  0  0  0  0
    5.4490    0.6309    2.2698 C   0  0  0  0  0  0  0  0  0  0  0  0
    4.5106   -0.0825    3.0417 C   0  0  0  0  0  0  0  0  0  0  0  0
    4.6812   -0.3028    4.4165 O   0  0  0  0  0  0  0  0  0  0  0  0
    5.7913    0.1669    5.1742 C   0  0  0  0  0  0  0  0  0  0  0  0
    3.3613   -0.5930    2.4241 C   0  0  0  0  0  0  0  0  0  0  0  0
    3.1408   -0.3901    1.0535 C   0  0  0  0  0  0  0  0  0  0  0  0
    2.0017   -0.8921    0.4193 C   0  0  0  0  0  0  0  0  0  0  0  0
    1.7832   -0.6717   -0.9534 C   0  0  0  0  0  0  0  0  0  0  0  0
    0.5467   -1.2915   -1.5794 C   0  0  0  0  0  0  0  0  0  0  0  0
   -0.7277   -0.7260   -0.9632 C   0  0  0  0  0  0  0  0  0  0  0  0
   -1.1156    0.5708   -1.3486 C   0  0  0  0  0  0  0  0  0  0  0  0
   -0.3055    1.3012   -2.2327 O   0  0  0  0  0  0  0  0  0  0  0  0
   -0.5668    2.5936   -2.7064 C   0  0  0  0  0  0  0  0  0  0  0  0
    0.4291    3.2474   -3.6021 C   0  0  0  0  0  0  0  0  0  0  0  0
   -1.6353    3.1975   -2.4183 O   0  0  0  0  0  0  0  0  0  0  0  0
   -2.2615    1.1097   -0.8648 N   0  0  0  0  0  0  0  0  0  0  0  0
   -3.0884    0.4687   -0.0018 C   0  0  0  0  0  0  0  0  0  0  0  0
   -4.3530    1.1663    0.4712 C   0  0  0  0  0  0  0  0  0  0  0  0
   -4.5065    2.5293   -0.0496 N   0  0  0  0  0  0  0  0  0  0  0  0
   -5.6625    3.3154    0.2671 C   0  0  0  0  0  0  0  0  0  0  0  0
   -5.7936    4.7015   -0.2755 C   0  0  0  0  0  0  0  0  0  0  0  0
   -6.5806    2.8388    0.9884 O   0  0  0  0  0  0  0  0  0  0  0  0
   -2.7485   -0.8353    0.4353 C   0  0  0  0  0  0  0  0  0  0  0  0
   -3.5752   -1.5461    1.3311 C   0  0  0  0  0  0  0  0  0  0  0  0
   -3.2210   -2.8244    1.7886 C   0  0  0  0  0  0  0  0  0  0  0  0
   -4.0292   -3.5505    2.6795 O   0  0  0  0  0  0  0  0  0  0  0  0
   -5.2716   -3.0939    3.2053 C   0  0  0  0  0  0  0  0  0  0  0  0
   -2.0274   -3.4055    1.3590 C   0  0  0  0  0  0  0  0  0  0  0  0
   -1.6969   -4.6782    1.8543 O   0  0  0  0  0  0  0  0  0  0  0  0
   -0.5195   -5.4027    1.5127 C   0  0  0  0  0  0  0  0  0  0  0  0
   -1.1981   -2.7151    0.4585 C   0  0  0  0  0  0  0  0  0  0  0  0
   -1.5462   -1.4355   -0.0338 C   0  0  0  0  0  0  0  0  0  0  0  0
    4.2945    1.3697   -5.8994 H   0  0  0  0  0  0  0  0  0  0  0  0
    3.0664    0.0531   -5.7593 H   0  0  0  0  0  0  0  0  0  0  0  0
    2.5971    1.7731   -5.4409 H   0  0  0  0  0  0  0  0  0  0  0  0
    4.6119    0.1239   -3.7842 H   0  0  0  0  0  0  0  0  0  0  0  0
    4.0993    1.8248   -3.4511 H   0  0  0  0  0  0  0  0  0  0  0  0
    1.7129    0.2660   -3.5732 H   0  0  0  0  0  0  0  0  0  0  0  0
    5.9583    1.3863    0.3218 H   0  0  0  0  0  0  0  0  0  0  0  0
    6.3482    1.0332    2.7159 H   0  0  0  0  0  0  0  0  0  0  0  0
    5.8434    1.2747    5.1286 H   0  0  0  0  0  0  0  0  0  0  0  0
    6.7327   -0.2759    4.7869 H   0  0  0  0  0  0  0  0  0  0  0  0
    5.6639   -0.1398    6.2315 H   0  0  0  0  0  0  0  0  0  0  0  0
    2.6412   -1.1442    3.0169 H   0  0  0  0  0  0  0  0  0  0  0  0
    1.2823   -1.4589    0.9969 H   0  0  0  0  0  0  0  0  0  0  0  0
    0.6290   -2.3882   -1.4968 H   0  0  0  0  0  0  0  0  0  0  0  0
    0.4894   -1.1569   -2.6729 H   0  0  0  0  0  0  0  0  0  0  0  0
    1.4437    3.1596   -3.1583 H   0  0  0  0  0  0  0  0  0  0  0  0
    0.4170    2.7474   -4.5924 H   0  0  0  0  0  0  0  0  0  0  0  0
    0.1879    4.3240   -3.7344 H   0  0  0  0  0  0  0  0  0  0  0  0
   -4.3415    1.2170    1.5815 H   0  0  0  0  0  0  0  0  0  0  0  0
   -5.2289    0.5637    0.1466 H   0  0  0  0  0  0  0  0  0  0  0  0
   -3.7725    2.9736   -0.6438 H   0  0  0  0  0  0  0  0  0  0  0  0
   -5.9126    4.6567   -1.3774 H   0  0  0  0  0  0  0  0  0  0  0  0
   -6.6758    5.2127    0.1653 H   0  0  0  0  0  0  0  0  0  0  0  0
   -4.8815    5.2856   -0.0309 H   0  0  0  0  0  0  0  0  0  0  0  0
   -4.4981   -1.1112    1.6817 H   0  0  0  0  0  0  0  0  0  0  0  0
   -5.6862   -3.8698    3.8812 H   0  0  0  0  0  0  0  0  0  0  0  0
   -5.1204   -2.1610    3.7888 H   0  0  0  0  0  0  0  0  0  0  0  0
   -5.9944   -2.9185    2.3800 H   0  0  0  0  0  0  0  0  0  0  0  0
   -0.4946   -5.5977    0.4195 H   0  0  0  0  0  0  0  0  0  0  0  0
   -0.5254   -6.3755    2.0454 H   0  0  0  0  0  0  0  0  0  0  0  0
    0.3827   -4.8346    1.8233 H   0  0  0  0  0  0  0  0  0  0  0  0
   -0.2744   -3.1858    0.1807 H   0  0  0  0  0  0  0  0  0  0  0  0
  1  2  1  0
  2  3  1  0
  3  4  1  0
  4  5  2  0
  5  6  1  0
  6  7  2  0
  7  8  1  0
  8  9  2  0
  9 10  1  0
 10 11  1  0
  9 12  1  0
 12 13  2  0
 13 14  1  0
 14 15  2  0
 15 16  1  0
 16 17  1  0
 17 18  2  0
 18 19  1  0
 19 20  1  0
 20 21  1  0
 20 22  2  0
 18 23  1  0
 23 24  2  0
 24 25  1  0
 25 26  1  0
 26 27  1  0
 27 28  1  0
 27 29  2  0
 24 30  1  0
 30 31  2  0
 31 32  1  0
 32 33  1  0
 33 34  1  0
 32 35  2  0
 35 36  1  0
 36 37  1  0
 35 38  1  0
 38 39  2  0
 15  4  1  0
 39 17  1  0
 13  6  1  0
 39 30  1  0
  1 40  1  0
  1 41  1  0
  1 42  1  0
  2 43  1  0
  2 44  1  0
  3 45  1  0
  7 46  1  0
  8 47  1  0
 11 48  1  0
 11 49  1  0
 11 50  1  0
 12 51  1  0
 14 52  1  0
 16 53  1  0
 16 54  1  0
 21 55  1  0
 21 56  1  0
 21 57  1  0
 25 58  1  0
 25 59  1  0
 26 60  1  0
 28 61  1  0
 28 62  1  0
 28 63  1  0
 31 64  1  0
 34 65  1  0
 34 66  1  0
 34 67  1  0
 37 68  1  0
 37 69  1  0
 37 70  1  0
 38 71  1  0
M  END
$$$$

     RDKit          3D

 51 53  0  0  0  0  0  0  0  0999 V2000
    4.6982   -3.5962    1.8577 C   0  0  0  0  0  0  0  0  0  0  0  0
    4.3745   -2.9895    0.5728 N   0  0  0  0  0  0  0  0  0  0  0  0
    3.7791   -1.6889    0.4827 C   0  0  0  0  0  0  0  0  0  0  0  0
    3.4111   -1.0925    1.5305 O   0  0  0  0  0  0  0  0  0  0  0  0
    3.5802   -1.0429   -0.8308 C   0  0  0  0  0  0  0  0  0  0  0  0
    2.4558   -0.3539   -1.2527 C   0  0  0  0  0  0  0  0  0  0  0  0
    1.2490   -0.1310   -0.5024 N   0  0  0  0  0  0  0  0  0  0  0  0
   -0.0046    0.2645   -1.0870 C   0  0  0  0  0  0  0  0  0  0  0  0
   -0.1645    0.2071   -2.3358 O   0  0  0  0  0  0  0  0  0  0  0  0
   -1.1366    0.6593   -0.2153 C   0  0  0  0  0  0  0  0  0  0  0  0
   -1.1467    0.2198    1.0722 N   0  0  0  0  0  0  0  0  0  0  0  0
   -2.1718    0.4770    1.9289 C   0  0  0  0  0  0  0  0  0  0  0  0
   -2.1025    0.0036    3.3746 C   0  0  0  0  0  0  0  0  0  0  0  0
   -1.5588    1.1463    4.2425 C   0  0  0  0  0  0  0  0  0  0  0  0
   -1.1809   -1.2258    3.5199 C   0  0  0  0  0  0  0  0  0  0  0  0
   -3.3880   -0.3306    3.8434 O   0  0  0  0  0  0  0  0  0  0  0  0
   -3.2439    1.2535    1.4710 C   0  0  0  0  0  0  0  0  0  0  0  0
   -3.2408    1.7126    0.1947 N   0  0  0  0  0  0  0  0  0  0  0  0
   -2.2265    1.4368   -0.6701 C   0  0  0  0  0  0  0  0  0  0  0  0
   -2.2378    2.0279   -1.9800 N   0  0  0  0  0  0  0  0  0  0  0  0
   -3.4424    2.2962   -2.7183 C   0  0  0  0  0  0  0  0  0  0  0  0
   -3.4598    3.3012   -3.6922 C   0  0  0  0  0  0  0  0  0  0  0  0
   -4.5908    3.5413   -4.4049 N   0  0  0  0  0  0  0  0  0  0  0  0
   -5.7152    2.8089   -4.1976 C   0  0  0  0  0  0  0  0  0  0  0  0
   -5.7185    1.8140   -3.2735 N   0  0  0  0  0  0  0  0  0  0  0  0
   -4.6110    1.5410   -2.5362 C   0  0  0  0  0  0  0  0  0  0  0  0
    2.7468    0.0764   -2.5359 C   0  0  0  0  0  0  0  0  0  0  0  0
    3.9863   -0.3376   -2.8648 N   0  0  0  0  0  0  0  0  0  0  0  0
    4.4858   -1.0060   -1.8353 N   0  0  0  0  0  0  0  0  0  0  0  0
    5.8286   -1.5780   -1.8417 C   0  0  0  0  0  0  0  0  0  0  0  0
    3.7768   -3.7005    2.4686 H   0  0  0  0  0  0  0  0  0  0  0  0
    5.1395   -4.6028    1.6993 H   0  0  0  0  0  0  0  0  0  0  0  0
    5.4330   -2.9628    2.3977 H   0  0  0  0  0  0  0  0  0  0  0  0
    4.5490   -3.5401   -0.2970 H   0  0  0  0  0  0  0  0  0  0  0  0
    1.2812   -0.2875    0.5281 H   0  0  0  0  0  0  0  0  0  0  0  0
   -2.2294    2.0307    4.1824 H   0  0  0  0  0  0  0  0  0  0  0  0
   -1.4998    0.8301    5.3063 H   0  0  0  0  0  0  0  0  0  0  0  0
   -0.5436    1.4486    3.9046 H   0  0  0  0  0  0  0  0  0  0  0  0
   -1.1963   -1.5957    4.5677 H   0  0  0  0  0  0  0  0  0  0  0  0
   -1.5247   -2.0482    2.8562 H   0  0  0  0  0  0  0  0  0  0  0  0
   -0.1316   -0.9722    3.2540 H   0  0  0  0  0  0  0  0  0  0  0  0
   -3.7418   -1.0577    3.2656 H   0  0  0  0  0  0  0  0  0  0  0  0
   -4.0670    1.5088    2.1254 H   0  0  0  0  0  0  0  0  0  0  0  0
   -1.3373    2.3955   -2.3620 H   0  0  0  0  0  0  0  0  0  0  0  0
   -2.5769    3.8986   -3.8788 H   0  0  0  0  0  0  0  0  0  0  0  0
   -6.6068    3.0132   -4.7742 H   0  0  0  0  0  0  0  0  0  0  0  0
   -4.6408    0.7250   -1.8271 H   0  0  0  0  0  0  0  0  0  0  0  0
    2.1212    0.6704   -3.1867 H   0  0  0  0  0  0  0  0  0  0  0  0
    5.7808   -2.6420   -2.1527 H   0  0  0  0  0  0  0  0  0  0  0  0
    6.4713   -1.0264   -2.5600 H   0  0  0  0  0  0  0  0  0  0  0  0
    6.2890   -1.4992   -0.8343 H   0  0  0  0  0  0  0  0  0  0  0  0
  1  2  1  0
  2  3  1  0
  3  4  2  0
  3  5  1  0
  5  6  2  0
  6  7  1  0
  7  8  1  0
  8  9  2  0
  8 10  1  0
 10 11  2  0
 11 12  1  0
 12 13  1  0
 13 14  1  0
 13 15  1  0
 13 16  1  0
 12 17  2  0
 17 18  1  0
 18 19  2  0
 19 20  1  0
 20 21  1  0
 21 22  2  0
 22 23  1  0
 23 24  2  0
 24 25  1  0
 25 26  2  0
  6 27  1  0
 27 28  2  0
 28 29  1  0
 29 30  1  0
 29  5  1  0
 19 10  1  0
 26 21  1  0
  1 31  1  0
  1 32  1  0
  1 33  1  0
  2 34  1  0
  7 35  1  0
 14 36  1  0
 14 37  1  0
 14 38  1  0
 15 39  1  0
 15 40  1  0
 15 41  1  0
 16 42  1  0
 17 43  1  0
 20 44  1  0
 22 45  1  0
 24 46  1  0
 26 47  1  0
 27 48  1  0
 30 49  1  0
 30 50  1  0
 30 51  1  0
M  END
$$$$

     RDKit          3D

 79 83  0  0  0  0  0  0  0  0999 V2000
   -6.4929   -1.2384   -3.2179 C   0  0  0  0  0  0  0  0  0  0  0  0
   -5.6175   -0.6588   -2.1106 C   0  0  0  0  0  0  0  0  0  0  0  0
   -4.1325   -0.9468   -2.3707 C   0  0  0  0  0  0  0  0  0  0  0  0
   -3.2694   -0.4221   -1.2392 C   0  0  0  0  0  0  0  0  0  0  0  0
   -2.6016    0.7483   -1.4368 N   0  0  0  0  0  0  0  0  0  0  0  0
   -1.8245    1.3183   -0.4819 C   0  0  0  0  0  0  0  0  0  0  0  0
   -1.2360    2.4040   -0.7403 O   0  0  0  0  0  0  0  0  0  0  0  0
   -1.6754    0.7143    0.7808 C   0  0  0  0  0  0  0  0  0  0  0  0
   -0.8388    1.4427    1.8282 C   0  0  0  0  0  0  0  0  0  0  0  0
    0.6510    1.2778    1.5833 C   0  0  0  0  0  0  0  0  0  0  0  0
    1.1758   -0.0036    1.3306 C   0  0  0  0  0  0  0  0  0  0  0  0
    2.5256   -0.1687    1.0053 C   0  0  0  0  0  0  0  0  0  0  0  0
    3.0561   -1.4348    0.7159 C   0  0  0  0  0  0  0  0  0  0  0  0
    4.4070   -1.5783    0.3728 C   0  0  0  0  0  0  0  0  0  0  0  0
    4.8830   -2.8685    0.0877 O   0  0  0  0  0  0  0  0  0  0  0  0
    6.1844   -3.1828   -0.4064 C   0  0  0  0  0  0  0  0  0  0  0  0
    6.3105   -2.7574   -1.8756 C   0  0  0  0  0  0  0  0  0  0  0  0
    7.5911   -3.2362   -2.5463 C   0  0  0  0  0  0  0  0  0  0  0  0
    7.4179   -1.7659   -2.2100 C   0  0  0  0  0  0  0  0  0  0  0  0
    5.2320   -0.4369    0.3324 C   0  0  0  0  0  0  0  0  0  0  0  0
    4.7069    0.8256    0.6223 C   0  0  0  0  0  0  0  0  0  0  0  0
    3.3570    0.9642    0.9565 C   0  0  0  0  0  0  0  0  0  0  0  0
    2.8498    2.1881    1.2495 N   0  0  0  0  0  0  0  0  0  0  0  0
    1.5414    2.3818    1.5752 C   0  0  0  0  0  0  0  0  0  0  0  0
    1.1075    3.7016    1.9441 N   0  0  0  0  0  0  0  0  0  0  0  0
    1.7908    4.9063    1.4743 C   0  0  0  0  0  0  0  0  0  0  0  0
    1.5509    5.1179   -0.0239 C   0  0  0  0  0  0  0  0  0  0  0  0
    0.1296    5.3175   -0.3114 N   0  0  0  0  0  0  0  0  0  0  0  0
   -0.3397    5.5274   -1.6489 C   0  0  0  0  0  0  0  0  0  0  0  0
   -1.7971    5.7350   -1.9083 C   0  0  0  0  0  0  0  0  0  0  0  0
    0.4657    5.4952   -2.6185 O   0  0  0  0  0  0  0  0  0  0  0  0
   -2.3073   -0.5406    1.0124 C   0  0  0  0  0  0  0  0  0  0  0  0
   -2.1325   -1.2570    2.2186 C   0  0  0  0  0  0  0  0  0  0  0  0
   -2.7899   -2.4767    2.4480 C   0  0  0  0  0  0  0  0  0  0  0  0
   -2.6413   -3.1916    3.6483 O   0  0  0  0  0  0  0  0  0  0  0  0
   -1.8289   -2.7817    4.7440 C   0  0  0  0  0  0  0  0  0  0  0  0
   -3.6201   -3.0121    1.4624 C   0  0  0  0  0  0  0  0  0  0  0  0
   -4.2687   -4.2290    1.7305 O   0  0  0  0  0  0  0  0  0  0  0  0
   -5.1491   -4.8953    0.8309 C   0  0  0  0  0  0  0  0  0  0  0  0
   -3.7790   -2.3345    0.2439 C   0  0  0  0  0  0  0  0  0  0  0  0
   -3.1301   -1.1047   -0.0013 C   0  0  0  0  0  0  0  0  0  0  0  0
   -6.2197   -0.7957   -4.2001 H   0  0  0  0  0  0  0  0  0  0  0  0
   -7.5585   -1.0070   -3.0080 H   0  0  0  0  0  0  0  0  0  0  0  0
   -6.3713   -2.3417   -3.2655 H   0  0  0  0  0  0  0  0  0  0  0  0
   -5.9373   -1.0947   -1.1401 H   0  0  0  0  0  0  0  0  0  0  0  0
   -5.7772    0.4414   -2.0634 H   0  0  0  0  0  0  0  0  0  0  0  0
   -3.9491   -2.0302   -2.5324 H   0  0  0  0  0  0  0  0  0  0  0  0
   -3.8453   -0.4520   -3.3243 H   0  0  0  0  0  0  0  0  0  0  0  0
   -2.6950    1.2453   -2.3527 H   0  0  0  0  0  0  0  0  0  0  0  0
   -1.0788    1.1492    2.8658 H   0  0  0  0  0  0  0  0  0  0  0  0
   -1.1389    2.5084    1.7883 H   0  0  0  0  0  0  0  0  0  0  0  0
    0.5292   -0.8710    1.3583 H   0  0  0  0  0  0  0  0  0  0  0  0
    2.4220   -2.3133    0.7486 H   0  0  0  0  0  0  0  0  0  0  0  0
    6.3076   -4.2852   -0.3520 H   0  0  0  0  0  0  0  0  0  0  0  0
    6.9653   -2.7337    0.2447 H   0  0  0  0  0  0  0  0  0  0  0  0
    5.4226   -2.7720   -2.5432 H   0  0  0  0  0  0  0  0  0  0  0  0
    7.4909   -3.4614   -3.6292 H   0  0  0  0  0  0  0  0  0  0  0  0
    8.3231   -3.7600   -1.8945 H   0  0  0  0  0  0  0  0  0  0  0  0
    8.0601   -1.4273   -1.3695 H   0  0  0  0  0  0  0  0  0  0  0  0
    7.2116   -1.1260   -3.0935 H   0  0  0  0  0  0  0  0  0  0  0  0
    6.2804   -0.5119    0.0887 H   0  0  0  0  0  0  0  0  0  0  0  0
    5.3530    1.6944    0.5896 H   0  0  0  0  0  0  0  0  0  0  0  0
    0.3525    3.8215    2.6554 H   0  0  0  0  0  0  0  0  0  0  0  0
    2.8813    4.8259    1.6738 H   0  0  0  0  0  0  0  0  0  0  0  0
    1.4117    5.7899    2.0328 H   0  0  0  0  0  0  0  0  0  0  0  0
    1.9255    4.2382   -0.5909 H   0  0  0  0  0  0  0  0  0  0  0  0
    2.1190    6.0139   -0.3545 H   0  0  0  0  0  0  0  0  0  0  0  0
   -0.5687    5.3148    0.4673 H   0  0  0  0  0  0  0  0  0  0  0  0
   -2.3119    4.7525   -1.9413 H   0  0  0  0  0  0  0  0  0  0  0  0
   -1.9443    6.2561   -2.8784 H   0  0  0  0  0  0  0  0  0  0  0  0
   -2.2428    6.3542   -1.1016 H   0  0  0  0  0  0  0  0  0  0  0  0
   -1.4642   -0.9003    2.9808 H   0  0  0  0  0  0  0  0  0  0  0  0
   -1.9205   -3.5252    5.5612 H   0  0  0  0  0  0  0  0  0  0  0  0
   -2.1677   -1.7955    5.1244 H   0  0  0  0  0  0  0  0  0  0  0  0
   -0.7655   -2.7284    4.4309 H   0  0  0  0  0  0  0  0  0  0  0  0
   -6.0175   -4.2451    0.5933 H   0  0  0  0  0  0  0  0  0  0  0  0
   -4.6088   -5.1700   -0.0997 H   0  0  0  0  0  0  0  0  0  0  0  0
   -5.5223   -5.8229    1.3104 H   0  0  0  0  0  0  0  0  0  0  0  0
   -4.4122   -2.7786   -0.5057 H   0  0  0  0  0  0  0  0  0  0  0  0
  1  2  1  0
  2  3  1  0
  3  4  1  0
  4  5  1  0
  5  6  1  0
  6  7  2  0
  6  8  1  0
  8  9  1  0
  9 10  1  0
 10 11  2  0
 11 12  1  0
 12 13  2  0
 13 14  1  0
 14 15  1  0
 15 16  1  0
 16 17  1  0
 17 18  1  0
 18 19  1  0
 14 20  2  0
 20 21  1  0
 21 22  2  0
 22 23  1  0
 23 24  2  0
 24 25  1  0
 25 26  1  0
 26 27  1  0
 27 28  1  0
 28 29  1  0
 29 30  1  0
 29 31  2  0
  8 32  2  0
 32 33  1  0
 33 34  2  0
 34 35  1  0
 35 36  1  0
 34 37  1  0
 37 38  1  0
 38 39  1  0
 37 40  2  0
 40 41  1  0
 41  4  2  0
 24 10  1  0
 41 32  1  0
 22 12  1  0
 19 17  1  0
  1 42  1  0
  1 43  1  0
  1 44  1  0
  2 45  1  0
  2 46  1  0
  3 47  1  0
  3 48  1  0
  5 49  1  0
  9 50  1  0
  9 51  1  0
 11 52  1  0
 13 53  1  0
 16 54  1  0
 16 55  1  0
 17 56  1  0
 18 57  1  0
 18 58  1  0
 19 59  1  0
 19 60  1  0
 20 61  1  0
 21 62  1  0
 25 63  1  0
 26 64  1  0
 26 65  1  0
 27 66  1  0
 27 67  1  0
 28 68  1  0
 30 69  1  0
 30 70  1  0
 30 71  1  0
 33 72  1  0
 36 73  1  0
 36 74  1  0
 36 75  1  0
 39 76  1  0
 39 77  1  0
 39 78  1  0
 40 79  1  0
M  END
$$$$

     RDKit          3D

 63 66  0  0  0  0  0  0  0  0999 V2000
    9.5988   -0.9593    0.2690 C   0  0  0  0  0  0  0  0  0  0  0  0
    8.7881   -0.0380   -0.6271 C   0  0  0  0  0  0  0  0  0  0  0  0
    7.4045   -0.1640   -0.3136 O   0  0  0  0  0  0  0  0  0  0  0  0
    6.4132    0.5454   -1.0012 C   0  0  0  0  0  0  0  0  0  0  0  0
    6.7244    1.3387   -1.9314 O   0  0  0  0  0  0  0  0  0  0  0  0
    4.9708    0.2844   -0.6811 C   0  0  0  0  0  0  0  0  0  0  0  0
    4.1386    1.5745   -0.6803 C   0  0  0  0  0  0  0  0  0  0  0  0
    2.6790    1.2590   -0.4810 C   0  0  0  0  0  0  0  0  0  0  0  0
    1.8373    1.1103   -1.5878 C   0  0  0  0  0  0  0  0  0  0  0  0
    0.4893    0.8126   -1.4123 C   0  0  0  0  0  0  0  0  0  0  0  0
   -0.0495    0.6448   -0.1261 C   0  0  0  0  0  0  0  0  0  0  0  0
   -1.4676    0.4491    0.0193 N   0  0  0  0  0  0  0  0  0  0  0  0
   -2.2428   -0.3472   -0.8892 C   0  0  0  0  0  0  0  0  0  0  0  0
   -1.6816   -1.2657   -1.5455 O   0  0  0  0  0  0  0  0  0  0  0  0
   -3.6819   -0.0564   -1.0843 C   0  0  0  0  0  0  0  0  0  0  0  0
   -4.1590    1.1496   -0.6719 N   0  0  0  0  0  0  0  0  0  0  0  0
   -5.4455    1.5304   -0.8810 C   0  0  0  0  0  0  0  0  0  0  0  0
   -5.8834    2.8955   -0.4461 C   0  0  0  0  0  0  0  0  0  0  0  0
   -7.1911    2.9862    0.3255 C   0  0  0  0  0  0  0  0  0  0  0  0
   -5.8655    3.0761    1.0636 C   0  0  0  0  0  0  0  0  0  0  0  0
   -6.2975    0.6766   -1.5874 C   0  0  0  0  0  0  0  0  0  0  0  0
   -5.8424   -0.5371   -1.9923 N   0  0  0  0  0  0  0  0  0  0  0  0
   -4.5684   -0.9403   -1.7435 C   0  0  0  0  0  0  0  0  0  0  0  0
   -4.1610   -2.2470   -2.1732 N   0  0  0  0  0  0  0  0  0  0  0  0
   -3.8396   -3.3155   -1.2609 C   0  0  0  0  0  0  0  0  0  0  0  0
   -4.0712   -3.2189    0.1237 C   0  0  0  0  0  0  0  0  0  0  0  0
   -3.7451   -4.2526    0.9425 N   0  0  0  0  0  0  0  0  0  0  0  0
   -3.2275   -5.4050    0.4421 C   0  0  0  0  0  0  0  0  0  0  0  0
   -3.0025   -5.5272   -0.8933 N   0  0  0  0  0  0  0  0  0  0  0  0
   -3.2890   -4.5069   -1.7467 C   0  0  0  0  0  0  0  0  0  0  0  0
    0.7956    0.7844    1.0077 C   0  0  0  0  0  0  0  0  0  0  0  0
    0.2992    0.5741    2.3927 C   0  0  0  0  0  0  0  0  0  0  0  0
   -0.7346   -0.1143    2.6074 O   0  0  0  0  0  0  0  0  0  0  0  0
    0.9971    1.1346    3.5087 N   0  0  0  0  0  0  0  0  0  0  0  0
    1.9386    0.3198    4.2687 C   0  0  0  0  0  0  0  0  0  0  0  0
    2.1551    1.0993    0.8096 C   0  0  0  0  0  0  0  0  0  0  0  0
   10.6752   -0.8840    0.0054 H   0  0  0  0  0  0  0  0  0  0  0  0
    9.2629   -2.0099    0.1285 H   0  0  0  0  0  0  0  0  0  0  0  0
    9.4630   -0.6689    1.3322 H   0  0  0  0  0  0  0  0  0  0  0  0
    9.1163    1.0136   -0.4685 H   0  0  0  0  0  0  0  0  0  0  0  0
    8.9596   -0.3169   -1.6915 H   0  0  0  0  0  0  0  0  0  0  0  0
    4.5625   -0.4284   -1.4330 H   0  0  0  0  0  0  0  0  0  0  0  0
    4.9034   -0.1969    0.3212 H   0  0  0  0  0  0  0  0  0  0  0  0
    4.4959    2.2554    0.1256 H   0  0  0  0  0  0  0  0  0  0  0  0
    4.2739    2.1071   -1.6484 H   0  0  0  0  0  0  0  0  0  0  0  0
    2.2228    1.2362   -2.5896 H   0  0  0  0  0  0  0  0  0  0  0  0
   -0.1436    0.7460   -2.2875 H   0  0  0  0  0  0  0  0  0  0  0  0
   -1.9710    0.9881    0.7606 H   0  0  0  0  0  0  0  0  0  0  0  0
   -5.5691    3.7945   -1.0229 H   0  0  0  0  0  0  0  0  0  0  0  0
   -7.7174    3.9600    0.2225 H   0  0  0  0  0  0  0  0  0  0  0  0
   -7.7317    2.0291    0.4966 H   0  0  0  0  0  0  0  0  0  0  0  0
   -5.6179    4.1017    1.4083 H   0  0  0  0  0  0  0  0  0  0  0  0
   -5.6439    2.1706    1.6735 H   0  0  0  0  0  0  0  0  0  0  0  0
   -7.3178    0.9637   -1.8054 H   0  0  0  0  0  0  0  0  0  0  0  0
   -4.3359   -2.4929   -3.1757 H   0  0  0  0  0  0  0  0  0  0  0  0
   -4.4919   -2.3208    0.5558 H   0  0  0  0  0  0  0  0  0  0  0  0
   -2.9868   -6.2229    1.1081 H   0  0  0  0  0  0  0  0  0  0  0  0
   -3.0735   -4.6205   -2.8034 H   0  0  0  0  0  0  0  0  0  0  0  0
    0.5180    1.9076    4.0246 H   0  0  0  0  0  0  0  0  0  0  0  0
    1.4009   -0.2059    5.0860 H   0  0  0  0  0  0  0  0  0  0  0  0
    2.4240   -0.4328    3.6130 H   0  0  0  0  0  0  0  0  0  0  0  0
    2.7207    0.9717    4.7088 H   0  0  0  0  0  0  0  0  0  0  0  0
    2.8188    1.2053    1.6591 H   0  0  0  0  0  0  0  0  0  0  0  0
  1  2  1  0
  2  3  1  0
  3  4  1  0
  4  5  2  0
  4  6  1  0
  6  7  1  0
  7  8  1  0
  8  9  2  0
  9 10  1  0
 10 11  2  0
 11 12  1  0
 12 13  1  0
 13 14  2  0
 13 15  1  0
 15 16  2  0
 16 17  1  0
 17 18  1  0
 18 19  1  0
 19 20  1  0
 17 21  2  0
 21 22  1  0
 22 23  2  0
 23 24  1  0
 24 25  1  0
 25 26  2  0
 26 27  1  0
 27 28  2  0
 28 29  1  0
 29 30  2  0
 11 31  1  0
 31 32  1  0
 32 33  2  0
 32 34  1  0
 34 35  1  0
 31 36  2  0
 36  8  1  0
 23 15  1  0
 30 25  1  0
 20 18  1  0
  1 37  1  0
  1 38  1  0
  1 39  1  0
  2 40  1  0
  2 41  1  0
  6 42  1  0
  6 43  1  0
  7 44  1  0
  7 45  1  0
  9 46  1  0
 10 47  1  0
 12 48  1  0
 18 49  1  0
 19 50  1  0
 19 51  1  0
 20 52  1  0
 20 53  1  0
 21 54  1  0
 24 55  1  0
 26 56  1  0
 28 57  1  0
 30 58  1  0
 34 59  1  0
 35 60  1  0
 35 61  1  0
 35 62  1  0
 36 63  1  0
M  END
$$$$

     RDKit          3D

 70 74  0  0  0  0  0  0  0  0999 V2000
   -8.5066    2.6261    2.8406 C   0  0  0  0  0  0  0  0  0  0  0  0
   -7.8196    2.8725    1.6327 O   0  0  0  0  0  0  0  0  0  0  0  0
   -8.6471    2.5762    0.5213 C   0  0  0  0  0  0  0  0  0  0  0  0
   -8.4028    1.1457    0.0267 C   0  0  0  0  0  0  0  0  0  0  0  0
   -6.9969    0.9318   -0.3224 N   0  0  0  0  0  0  0  0  0  0  0  0
   -6.5248   -0.3641   -0.7350 C   0  0  0  0  0  0  0  0  0  0  0  0
   -7.4381   -1.2913   -1.1412 N   0  0  0  0  0  0  0  0  0  0  0  0
   -7.0890   -2.5294   -1.5703 C   0  0  0  0  0  0  0  0  0  0  0  0
   -5.7494   -2.9006   -1.6164 C   0  0  0  0  0  0  0  0  0  0  0  0
   -4.7686   -1.9925   -1.2018 C   0  0  0  0  0  0  0  0  0  0  0  0
   -3.4177   -2.3644   -1.2281 C   0  0  0  0  0  0  0  0  0  0  0  0
   -2.4336   -1.4773   -0.7963 C   0  0  0  0  0  0  0  0  0  0  0  0
   -2.7796   -0.2014   -0.3262 C   0  0  0  0  0  0  0  0  0  0  0  0
   -1.7316    0.7342    0.1495 C   0  0  0  0  0  0  0  0  0  0  0  0
   -2.0451    1.6843    0.9180 O   0  0  0  0  0  0  0  0  0  0  0  0
   -0.3575    0.5717   -0.2403 N   0  0  0  0  0  0  0  0  0  0  0  0
    0.6942    0.8327    0.7463 C   0  0  0  0  0  0  0  0  0  0  0  0
    1.9061   -0.0588    0.4689 C   0  0  0  0  0  0  0  0  0  0  0  0
    2.4180    0.1018   -0.9855 C   0  0  0  0  0  0  0  0  0  0  0  0
    1.2492   -0.1767   -1.9669 C   0  0  0  0  0  0  0  0  0  0  0  0
   -0.0075    0.6537   -1.6631 C   0  0  0  0  0  0  0  0  0  0  0  0
    3.5538   -0.9470   -1.2490 C   0  0  0  0  0  0  0  0  0  0  0  0
    4.8369   -0.5175   -0.6014 C   0  0  0  0  0  0  0  0  0  0  0  0
    5.9044   -1.2459   -0.1312 C   0  0  0  0  0  0  0  0  0  0  0  0
    6.8209   -0.3721    0.3600 N   0  0  0  0  0  0  0  0  0  0  0  0
    8.0593   -0.7094    1.0901 C   0  0  0  0  0  0  0  0  0  0  0  0
    9.0808    0.4384    0.9468 C   0  0  0  0  0  0  0  0  0  0  0  0
    8.6968   -2.0000    0.5318 C   0  0  0  0  0  0  0  0  0  0  0  0
    7.7189   -0.9055    2.5765 C   0  0  0  0  0  0  0  0  0  0  0  0
    6.3556    0.8692    0.2447 N   0  0  0  0  0  0  0  0  0  0  0  0
    5.1572    0.7805   -0.3563 C   0  0  0  0  0  0  0  0  0  0  0  0
    4.2311    1.8549   -0.6793 C   0  0  0  0  0  0  0  0  0  0  0  0
    4.5515    3.0643   -0.5427 O   0  0  0  0  0  0  0  0  0  0  0  0
    2.9359    1.4819   -1.1743 N   0  0  0  0  0  0  0  0  0  0  0  0
   -4.1346    0.1727   -0.2875 C   0  0  0  0  0  0  0  0  0  0  0  0
   -5.1440   -0.7039   -0.7425 C   0  0  0  0  0  0  0  0  0  0  0  0
   -7.8168    2.8212    3.6851 H   0  0  0  0  0  0  0  0  0  0  0  0
   -8.8379    1.5674    2.9129 H   0  0  0  0  0  0  0  0  0  0  0  0
   -9.3744    3.3126    2.9521 H   0  0  0  0  0  0  0  0  0  0  0  0
   -8.3863    3.2780   -0.3003 H   0  0  0  0  0  0  0  0  0  0  0  0
   -9.7344    2.7264    0.7242 H   0  0  0  0  0  0  0  0  0  0  0  0
   -8.7003    0.4261    0.8194 H   0  0  0  0  0  0  0  0  0  0  0  0
   -9.0364    0.9597   -0.8687 H   0  0  0  0  0  0  0  0  0  0  0  0
   -6.3529    1.7535   -0.3032 H   0  0  0  0  0  0  0  0  0  0  0  0
   -7.8564   -3.2253   -1.8839 H   0  0  0  0  0  0  0  0  0  0  0  0
   -5.4821   -3.8917   -1.9637 H   0  0  0  0  0  0  0  0  0  0  0  0
   -3.1225   -3.3481   -1.5763 H   0  0  0  0  0  0  0  0  0  0  0  0
   -1.4002   -1.7994   -0.8120 H   0  0  0  0  0  0  0  0  0  0  0  0
    0.3247    0.6157    1.7739 H   0  0  0  0  0  0  0  0  0  0  0  0
    0.9871    1.9048    0.7042 H   0  0  0  0  0  0  0  0  0  0  0  0
    2.7102    0.1928    1.1932 H   0  0  0  0  0  0  0  0  0  0  0  0
    1.6104   -1.1167    0.6497 H   0  0  0  0  0  0  0  0  0  0  0  0
    1.5754    0.0336   -3.0092 H   0  0  0  0  0  0  0  0  0  0  0  0
    0.9731   -1.2535   -1.9152 H   0  0  0  0  0  0  0  0  0  0  0  0
   -0.8394    0.2767   -2.2960 H   0  0  0  0  0  0  0  0  0  0  0  0
    0.1500    1.7170   -1.9413 H   0  0  0  0  0  0  0  0  0  0  0  0
    3.7447   -1.0328   -2.3413 H   0  0  0  0  0  0  0  0  0  0  0  0
    3.2623   -1.9547   -0.8785 H   0  0  0  0  0  0  0  0  0  0  0  0
    5.9904   -2.3228   -0.1327 H   0  0  0  0  0  0  0  0  0  0  0  0
   10.0274    0.1932    1.4754 H   0  0  0  0  0  0  0  0  0  0  0  0
    9.3117    0.6130   -0.1263 H   0  0  0  0  0  0  0  0  0  0  0  0
    8.6822    1.3830    1.3780 H   0  0  0  0  0  0  0  0  0  0  0  0
    8.8422   -1.9155   -0.5662 H   0  0  0  0  0  0  0  0  0  0  0  0
    9.6848   -2.1872    1.0065 H   0  0  0  0  0  0  0  0  0  0  0  0
    8.0571   -2.8848    0.7381 H   0  0  0  0  0  0  0  0  0  0  0  0
    7.2626    0.0217    2.9913 H   0  0  0  0  0  0  0  0  0  0  0  0
    6.9886   -1.7342    2.6984 H   0  0  0  0  0  0  0  0  0  0  0  0
    8.6328   -1.1455    3.1652 H   0  0  0  0  0  0  0  0  0  0  0  0
    2.3229    2.2350   -1.5565 H   0  0  0  0  0  0  0  0  0  0  0  0
   -4.3770    1.1463    0.1078 H   0  0  0  0  0  0  0  0  0  0  0  0
  1  2  1  0
  2  3  1  0
  3  4  1  0
  4  5  1  0
  5  6  1  0
  6  7  2  0
  7  8  1  0
  8  9  2  0
  9 10  1  0
 10 11  2  0
 11 12  1  0
 12 13  2  0
 13 14  1  0
 14 15  2  0
 14 16  1  0
 16 17  1  0
 17 18  1  0
 18 19  1  0
 19 20  1  0
 20 21  1  0
 19 22  1  0
 22 23  1  0
 23 24  2  0
 24 25  1  0
 25 26  1  0
 26 27  1  0
 26 28  1  0
 26 29  1  0
 25 30  1  0
 30 31  2  0
 31 32  1  0
 32 33  2  0
 32 34  1  0
 13 35  1  0
 35 36  2  0
 36  6  1  0
 36 10  1  0
 21 16  1  0
 31 23  1  0
 34 19  1  0
  1 37  1  0
  1 38  1  0
  1 39  1  0
  3 40  1  0
  3 41  1  0
  4 42  1  0
  4 43  1  0
  5 44  1  0
  8 45  1  0
  9 46  1  0
 11 47  1  0
 12 48  1  0
 17 49  1  0
 17 50  1  0
 18 51  1  0
 18 52  1  0
 20 53  1  0
 20 54  1  0
 21 55  1  0
 21 56  1  0
 22 57  1  0
 22 58  1  0
 24 59  1  0
 27 60  1  0
 27 61  1  0
 27 62  1  0
 28 63  1  0
 28 64  1  0
 28 65  1  0
 29 66  1  0
 29 67  1  0
 29 68  1  0
 34 69  1  0
 35 70  1  0
M  END
$$$$

     RDKit          3D

 65 68  0  0  0  0  0  0  0  0999 V2000
   -5.3826    2.8136    0.1800 C   0  0  0  0  0  0  0  0  0  0  0  0
   -4.4661    3.8205    0.8707 C   0  0  0  0  0  0  0  0  0  0  0  0
   -3.2871    3.1503    1.5893 C   0  0  0  0  0  0  0  0  0  0  0  0
   -2.2737    2.5775    0.6129 C   0  0  0  0  0  0  0  0  0  0  0  0
   -1.3753    3.4462    0.0708 N   0  0  0  0  0  0  0  0  0  0  0  0
   -0.3761    3.0512   -0.7581 C   0  0  0  0  0  0  0  0  0  0  0  0
    0.4335    3.9158   -1.1913 O   0  0  0  0  0  0  0  0  0  0  0  0
   -0.2385    1.6985   -1.1198 C   0  0  0  0  0  0  0  0  0  0  0  0
    0.9562    1.2629   -1.9645 C   0  0  0  0  0  0  0  0  0  0  0  0
    1.9101    0.3734   -1.1837 C   0  0  0  0  0  0  0  0  0  0  0  0
    2.2404    0.7152    0.1410 C   0  0  0  0  0  0  0  0  0  0  0  0
    3.0083   -0.1467    0.9272 C   0  0  0  0  0  0  0  0  0  0  0  0
    3.2926    0.1515    2.2683 C   0  0  0  0  0  0  0  0  0  0  0  0
    4.0531   -0.7440    3.0469 C   0  0  0  0  0  0  0  0  0  0  0  0
    4.3546   -0.4940    4.3947 O   0  0  0  0  0  0  0  0  0  0  0  0
    3.9423    0.6664    5.1110 C   0  0  0  0  0  0  0  0  0  0  0  0
    4.5268   -1.9297    2.4653 C   0  0  0  0  0  0  0  0  0  0  0  0
    5.2625   -2.8010    3.2028 F   0  0  0  0  0  0  0  0  0  0  0  0
    4.2454   -2.2272    1.1285 C   0  0  0  0  0  0  0  0  0  0  0  0
    3.4833   -1.3427    0.3593 C   0  0  0  0  0  0  0  0  0  0  0  0
    3.2060   -1.6329   -0.9372 N   0  0  0  0  0  0  0  0  0  0  0  0
    2.4542   -0.8179   -1.7285 C   0  0  0  0  0  0  0  0  0  0  0  0
    2.2543   -1.1755   -3.1080 N   0  0  0  0  0  0  0  0  0  0  0  0
    2.5430   -2.5155   -3.6158 C   0  0  0  0  0  0  0  0  0  0  0  0
    3.9876   -2.5992   -4.0949 C   0  0  0  0  0  0  0  0  0  0  0  0
   -1.1906    0.7658   -0.6275 C   0  0  0  0  0  0  0  0  0  0  0  0
   -1.1395   -0.5961   -0.9960 C   0  0  0  0  0  0  0  0  0  0  0  0
   -2.0490   -1.5292   -0.4775 C   0  0  0  0  0  0  0  0  0  0  0  0
   -1.9906   -2.8925   -0.8155 O   0  0  0  0  0  0  0  0  0  0  0  0
   -1.0187   -3.4706   -1.6845 C   0  0  0  0  0  0  0  0  0  0  0  0
   -3.0481   -1.1054    0.4015 C   0  0  0  0  0  0  0  0  0  0  0  0
   -3.9445   -2.0670    0.8998 O   0  0  0  0  0  0  0  0  0  0  0  0
   -5.0154   -1.7914    1.7936 C   0  0  0  0  0  0  0  0  0  0  0  0
   -3.1331    0.2514    0.7573 C   0  0  0  0  0  0  0  0  0  0  0  0
   -2.2109    1.2008    0.2613 C   0  0  0  0  0  0  0  0  0  0  0  0
   -5.7855    2.0880    0.9174 H   0  0  0  0  0  0  0  0  0  0  0  0
   -6.2348    3.3500   -0.2866 H   0  0  0  0  0  0  0  0  0  0  0  0
   -4.8349    2.2690   -0.6179 H   0  0  0  0  0  0  0  0  0  0  0  0
   -4.0895    4.5519    0.1223 H   0  0  0  0  0  0  0  0  0  0  0  0
   -5.0646    4.3840    1.6200 H   0  0  0  0  0  0  0  0  0  0  0  0
   -3.6431    2.4190    2.3394 H   0  0  0  0  0  0  0  0  0  0  0  0
   -2.7766    3.9274    2.1980 H   0  0  0  0  0  0  0  0  0  0  0  0
   -1.4354    4.4610    0.3175 H   0  0  0  0  0  0  0  0  0  0  0  0
    1.5389    2.1304   -2.3357 H   0  0  0  0  0  0  0  0  0  0  0  0
    0.5562    0.7668   -2.8696 H   0  0  0  0  0  0  0  0  0  0  0  0
    1.8661    1.6365    0.5723 H   0  0  0  0  0  0  0  0  0  0  0  0
    2.9149    1.0699    2.6998 H   0  0  0  0  0  0  0  0  0  0  0  0
    4.3197    0.6053    6.1518 H   0  0  0  0  0  0  0  0  0  0  0  0
    2.8339    0.7244    5.1395 H   0  0  0  0  0  0  0  0  0  0  0  0
    4.3623    1.5771    4.6348 H   0  0  0  0  0  0  0  0  0  0  0  0
    4.6177   -3.1482    0.6930 H   0  0  0  0  0  0  0  0  0  0  0  0
    2.1085   -0.4279   -3.8181 H   0  0  0  0  0  0  0  0  0  0  0  0
    1.8633   -2.7341   -4.4663 H   0  0  0  0  0  0  0  0  0  0  0  0
    2.3592   -3.2804   -2.8289 H   0  0  0  0  0  0  0  0  0  0  0  0
    4.6840   -2.3782   -3.2590 H   0  0  0  0  0  0  0  0  0  0  0  0
    4.1590   -1.8689   -4.9159 H   0  0  0  0  0  0  0  0  0  0  0  0
    4.1975   -3.6212   -4.4749 H   0  0  0  0  0  0  0  0  0  0  0  0
   -0.3978   -0.9444   -1.6940 H   0  0  0  0  0  0  0  0  0  0  0  0
    0.0061   -3.2977   -1.2872 H   0  0  0  0  0  0  0  0  0  0  0  0
   -1.1943   -4.5647   -1.7475 H   0  0  0  0  0  0  0  0  0  0  0  0
   -1.1109   -3.0365   -2.7038 H   0  0  0  0  0  0  0  0  0  0  0  0
   -5.5477   -2.7380    2.0247 H   0  0  0  0  0  0  0  0  0  0  0  0
   -5.7328   -1.0860    1.3253 H   0  0  0  0  0  0  0  0  0  0  0  0
   -4.6208   -1.3646    2.7388 H   0  0  0  0  0  0  0  0  0  0  0  0
   -3.9328    0.5477    1.4109 H   0  0  0  0  0  0  0  0  0  0  0  0
  1  2  1  0
  2  3  1  0
  3  4  1  0
  4  5  1  0
  5  6  1  0
  6  7  2  0
  6  8  1  0
  8  9  1  0
  9 10  1  0
 10 11  2  0
 11 12  1  0
 12 13  2  0
 13 14  1  0
 14 15  1  0
 15 16  1  0
 14 17  2  0
 17 18  1  0
 17 19  1  0
 19 20  2  0
 20 21  1  0
 21 22  2  0
 22 23  1  0
 23 24  1  0
 24 25  1  0
  8 26  2  0
 26 27  1  0
 27 28  2  0
 28 29  1  0
 29 30  1  0
 28 31  1  0
 31 32  1  0
 32 33  1  0
 31 34  2  0
 34 35  1  0
 35  4  2  0
 22 10  1  0
 35 26  1  0
 20 12  1  0
  1 36  1  0
  1 37  1  0
  1 38  1  0
  2 39  1  0
  2 40  1  0
  3 41  1  0
  3 42  1  0
  5 43  1  0
  9 44  1  0
  9 45  1  0
 11 46  1  0
 13 47  1  0
 16 48  1  0
 16 49  1  0
 16 50  1  0
 19 51  1  0
 23 52  1  0
 24 53  1  0
 24 54  1  0
 25 55  1  0
 25 56  1  0
 25 57  1  0
 27 58  1  0
 30 59  1  0
 30 60  1  0
 30 61  1  0
 33 62  1  0
 33 63  1  0
 33 64  1  0
 34 65  1  0
M  END
$$$$

     RDKit          3D

 47 51  0  0  0  0  0  0  0  0999 V2000
    3.3338   -0.2320   -4.6943 C   0  0  0  0  0  0  0  0  0  0  0  0
    2.8386    0.0189   -3.3804 O   0  0  0  0  0  0  0  0  0  0  0  0
    3.5924   -0.1194   -2.2065 C   0  0  0  0  0  0  0  0  0  0  0  0
    4.8930   -0.5157   -2.2640 N   0  0  0  0  0  0  0  0  0  0  0  0
    5.6524   -0.6584   -1.1489 C   0  0  0  0  0  0  0  0  0  0  0  0
    5.0888   -0.3916    0.1111 C   0  0  0  0  0  0  0  0  0  0  0  0
    5.8365   -0.5158    1.4224 C   0  0  0  0  0  0  0  0  0  0  0  0
    6.8797   -1.6195    1.5298 C   0  0  0  0  0  0  0  0  0  0  0  0
    7.3177   -0.1641    1.4179 C   0  0  0  0  0  0  0  0  0  0  0  0
    3.7896    0.0032    0.1633 N   0  0  0  0  0  0  0  0  0  0  0  0
    3.0179    0.1513   -0.9479 C   0  0  0  0  0  0  0  0  0  0  0  0
    1.6069    0.5811   -0.7876 C   0  0  0  0  0  0  0  0  0  0  0  0
    0.8502    0.6626   -1.7930 O   0  0  0  0  0  0  0  0  0  0  0  0
    1.1069    0.9400    0.5125 N   0  0  0  0  0  0  0  0  0  0  0  0
   -0.2901    1.0697    0.8275 C   0  0  0  0  0  0  0  0  0  0  0  0
   -0.6992    1.9876    1.8234 C   0  0  0  0  0  0  0  0  0  0  0  0
   -2.0549    2.1157    2.1678 C   0  0  0  0  0  0  0  0  0  0  0  0
   -2.9645    1.2990    1.5047 C   0  0  0  0  0  0  0  0  0  0  0  0
   -4.2952    1.2580    1.6924 N   0  0  0  0  0  0  0  0  0  0  0  0
   -4.6616    0.2898    0.8085 C   0  0  0  0  0  0  0  0  0  0  0  0
   -6.0594   -0.1525    0.6155 C   0  0  0  0  0  0  0  0  0  0  0  0
   -7.1010    0.4289    1.3613 C   0  0  0  0  0  0  0  0  0  0  0  0
   -8.4222    0.0090    1.1767 C   0  0  0  0  0  0  0  0  0  0  0  0
   -8.7163   -0.9924    0.2485 C   0  0  0  0  0  0  0  0  0  0  0  0
   -7.6897   -1.5764   -0.4973 C   0  0  0  0  0  0  0  0  0  0  0  0
   -6.3668   -1.1604   -0.3166 C   0  0  0  0  0  0  0  0  0  0  0  0
   -3.6112   -0.2288    0.1243 N   0  0  0  0  0  0  0  0  0  0  0  0
   -2.5617    0.4239    0.5800 N   0  0  0  0  0  0  0  0  0  0  0  0
   -1.2679    0.2598    0.2095 C   0  0  0  0  0  0  0  0  0  0  0  0
    2.7222   -1.0281   -5.1665 H   0  0  0  0  0  0  0  0  0  0  0  0
    3.2429    0.6936   -5.2990 H   0  0  0  0  0  0  0  0  0  0  0  0
    4.3960   -0.5533   -4.6947 H   0  0  0  0  0  0  0  0  0  0  0  0
    6.6787   -0.9759   -1.2605 H   0  0  0  0  0  0  0  0  0  0  0  0
    5.3037   -0.2825    2.3694 H   0  0  0  0  0  0  0  0  0  0  0  0
    6.9956   -2.0424    2.5501 H   0  0  0  0  0  0  0  0  0  0  0  0
    7.0684   -2.2285    0.6222 H   0  0  0  0  0  0  0  0  0  0  0  0
    7.7712    0.1067    0.4425 H   0  0  0  0  0  0  0  0  0  0  0  0
    7.6898    0.2639    2.3727 H   0  0  0  0  0  0  0  0  0  0  0  0
    1.7961    1.2074    1.2511 H   0  0  0  0  0  0  0  0  0  0  0  0
    0.0342    2.6067    2.3243 H   0  0  0  0  0  0  0  0  0  0  0  0
   -2.3774    2.8199    2.9239 H   0  0  0  0  0  0  0  0  0  0  0  0
   -6.8958    1.2067    2.0861 H   0  0  0  0  0  0  0  0  0  0  0  0
   -9.2185    0.4609    1.7540 H   0  0  0  0  0  0  0  0  0  0  0  0
   -9.7395   -1.3158    0.1071 H   0  0  0  0  0  0  0  0  0  0  0  0
   -7.9189   -2.3524   -1.2163 H   0  0  0  0  0  0  0  0  0  0  0  0
   -5.5869   -1.6268   -0.9054 H   0  0  0  0  0  0  0  0  0  0  0  0
   -1.0044   -0.4933   -0.5215 H   0  0  0  0  0  0  0  0  0  0  0  0
  1  2  1  0
  2  3  1  0
  3  4  2  0
  4  5  1  0
  5  6  2  0
  6  7  1  0
  7  8  1  0
  8  9  1  0
  6 10  1  0
 10 11  2  0
 11 12  1  0
 12 13  2  0
 12 14  1  0
 14 15  1  0
 15 16  1  0
 16 17  2  0
 17 18  1  0
 18 19  2  0
 19 20  1  0
 20 21  1  0
 21 22  2  0
 22 23  1  0
 23 24  2  0
 24 25  1  0
 25 26  2  0
 20 27  2  0
 27 28  1  0
 28 29  1  0
 11  3  1  0
 29 15  2  0
  9  7  1  0
 28 18  1  0
 26 21  1  0
  1 30  1  0
  1 31  1  0
  1 32  1  0
  5 33  1  0
  7 34  1  0
  8 35  1  0
  8 36  1  0
  9 37  1  0
  9 38  1  0
 14 39  1  0
 16 40  1  0
 17 41  1  0
 22 42  1  0
 23 43  1  0
 24 44  1  0
 25 45  1  0
 26 46  1  0
 29 47  1  0
M  END
$$$$

     RDKit          3D

 71 74  0  0  0  0  0  0  0  0999 V2000
    5.7469   -0.9105   -3.7186 C   0  0  0  0  0  0  0  0  0  0  0  0
    6.2182    0.2627   -2.8577 C   0  0  0  0  0  0  0  0  0  0  0  0
    5.7268    0.1550   -1.4029 C   0  0  0  0  0  0  0  0  0  0  0  0
    4.2560    0.4764   -1.2024 C   0  0  0  0  0  0  0  0  0  0  0  0
    3.5204    0.8991   -2.2648 N   0  0  0  0  0  0  0  0  0  0  0  0
    2.2065    1.2109   -2.1747 C   0  0  0  0  0  0  0  0  0  0  0  0
    1.5328    1.1167   -0.9520 C   0  0  0  0  0  0  0  0  0  0  0  0
    0.0603    1.4865   -0.9087 C   0  0  0  0  0  0  0  0  0  0  0  0
   -0.8975    0.3088   -0.7879 C   0  0  0  0  0  0  0  0  0  0  0  0
   -0.4548   -1.0217   -0.9519 C   0  0  0  0  0  0  0  0  0  0  0  0
   -1.3432   -2.0917   -0.8082 C   0  0  0  0  0  0  0  0  0  0  0  0
   -0.9135   -3.4199   -0.9526 C   0  0  0  0  0  0  0  0  0  0  0  0
   -1.8181   -4.4792   -0.8030 C   0  0  0  0  0  0  0  0  0  0  0  0
   -1.3399   -5.7891   -0.9571 O   0  0  0  0  0  0  0  0  0  0  0  0
   -2.1449   -6.9578   -0.8396 C   0  0  0  0  0  0  0  0  0  0  0  0
   -3.1664   -4.1982   -0.5053 C   0  0  0  0  0  0  0  0  0  0  0  0
   -3.5971   -2.8762   -0.3622 C   0  0  0  0  0  0  0  0  0  0  0  0
   -2.6907   -1.8226   -0.5127 C   0  0  0  0  0  0  0  0  0  0  0  0
   -3.1110   -0.5395   -0.3841 N   0  0  0  0  0  0  0  0  0  0  0  0
   -2.2743    0.5277   -0.5188 C   0  0  0  0  0  0  0  0  0  0  0  0
   -2.8174    1.8559   -0.3941 N   0  0  0  0  0  0  0  0  0  0  0  0
   -4.2171    2.0706   -0.0228 C   0  0  0  0  0  0  0  0  0  0  0  0
   -4.5452    3.5658    0.0400 C   0  0  0  0  0  0  0  0  0  0  0  0
   -5.9466    3.7793    0.4011 N   0  0  0  0  0  0  0  0  0  0  0  0
   -6.4941    5.0979    0.5220 C   0  0  0  0  0  0  0  0  0  0  0  0
   -7.9323    5.2794    0.8823 C   0  0  0  0  0  0  0  0  0  0  0  0
   -5.7766    6.1095    0.2945 O   0  0  0  0  0  0  0  0  0  0  0  0
    2.2509    0.6700    0.1881 C   0  0  0  0  0  0  0  0  0  0  0  0
    1.6224    0.5151    1.4413 C   0  0  0  0  0  0  0  0  0  0  0  0
    2.3407    0.0752    2.5657 C   0  0  0  0  0  0  0  0  0  0  0  0
    1.7313   -0.0948    3.8200 O   0  0  0  0  0  0  0  0  0  0  0  0
    0.3511    0.1331    4.0879 C   0  0  0  0  0  0  0  0  0  0  0  0
    3.7050   -0.2067    2.4508 C   0  0  0  0  0  0  0  0  0  0  0  0
    4.3933   -0.6300    3.6000 O   0  0  0  0  0  0  0  0  0  0  0  0
    5.7813   -0.9461    3.6438 C   0  0  0  0  0  0  0  0  0  0  0  0
    4.3443   -0.0647    1.2074 C   0  0  0  0  0  0  0  0  0  0  0  0
    3.6315    0.3582    0.0663 C   0  0  0  0  0  0  0  0  0  0  0  0
    4.6395   -0.9466   -3.7729 H   0  0  0  0  0  0  0  0  0  0  0  0
    6.1197   -1.8694   -3.2988 H   0  0  0  0  0  0  0  0  0  0  0  0
    6.1455   -0.7981   -4.7491 H   0  0  0  0  0  0  0  0  0  0  0  0
    7.3303    0.2615   -2.8550 H   0  0  0  0  0  0  0  0  0  0  0  0
    5.8917    1.2239   -3.3097 H   0  0  0  0  0  0  0  0  0  0  0  0
    5.9351   -0.8732   -1.0350 H   0  0  0  0  0  0  0  0  0  0  0  0
    6.3211    0.8662   -0.7897 H   0  0  0  0  0  0  0  0  0  0  0  0
    1.6866    1.5373   -3.0664 H   0  0  0  0  0  0  0  0  0  0  0  0
   -0.2180    2.0646   -1.8168 H   0  0  0  0  0  0  0  0  0  0  0  0
   -0.0850    2.1771   -0.0515 H   0  0  0  0  0  0  0  0  0  0  0  0
    0.5786   -1.2370   -1.1910 H   0  0  0  0  0  0  0  0  0  0  0  0
    0.1236   -3.6378   -1.1802 H   0  0  0  0  0  0  0  0  0  0  0  0
   -2.9523   -6.9434   -1.6021 H   0  0  0  0  0  0  0  0  0  0  0  0
   -1.5119   -7.8528   -1.0099 H   0  0  0  0  0  0  0  0  0  0  0  0
   -2.5826   -7.0192    0.1794 H   0  0  0  0  0  0  0  0  0  0  0  0
   -3.8891   -4.9933   -0.3832 H   0  0  0  0  0  0  0  0  0  0  0  0
   -4.6368   -2.6737   -0.1353 H   0  0  0  0  0  0  0  0  0  0  0  0
   -2.2244    2.6907   -0.5975 H   0  0  0  0  0  0  0  0  0  0  0  0
   -4.4067    1.6114    0.9722 H   0  0  0  0  0  0  0  0  0  0  0  0
   -4.8752    1.5817   -0.7741 H   0  0  0  0  0  0  0  0  0  0  0  0
   -4.3486    4.0281   -0.9522 H   0  0  0  0  0  0  0  0  0  0  0  0
   -3.8933    4.0528    0.7981 H   0  0  0  0  0  0  0  0  0  0  0  0
   -6.5728    2.9602    0.5762 H   0  0  0  0  0  0  0  0  0  0  0  0
   -8.1935    4.6144    1.7325 H   0  0  0  0  0  0  0  0  0  0  0  0
   -8.5670    5.0253    0.0069 H   0  0  0  0  0  0  0  0  0  0  0  0
   -8.1278    6.3320    1.1800 H   0  0  0  0  0  0  0  0  0  0  0  0
    0.5701    0.7237    1.5509 H   0  0  0  0  0  0  0  0  0  0  0  0
    0.1489   -0.0849    5.1562 H   0  0  0  0  0  0  0  0  0  0  0  0
    0.0938    1.1948    3.8882 H   0  0  0  0  0  0  0  0  0  0  0  0
   -0.2756   -0.5390    3.4638 H   0  0  0  0  0  0  0  0  0  0  0  0
    6.3849   -0.0564    3.3658 H   0  0  0  0  0  0  0  0  0  0  0  0
    6.0511   -1.2494    4.6761 H   0  0  0  0  0  0  0  0  0  0  0  0
    6.0035   -1.7903    2.9570 H   0  0  0  0  0  0  0  0  0  0  0  0
    5.3978   -0.2864    1.1382 H   0  0  0  0  0  0  0  0  0  0  0  0
  1  2  1  0
  2  3  1  0
  3  4  1  0
  4  5  2  0
  5  6  1  0
  6  7  2  0
  7  8  1  0
  8  9  1  0
  9 10  2  0
 10 11  1  0
 11 12  2  0
 12 13  1  0
 13 14  1  0
 14 15  1  0
 13 16  2  0
 16 17  1  0
 17 18  2  0
 18 19  1  0
 19 20  2  0
 20 21  1  0
 21 22  1  0
 22 23  1  0
 23 24  1  0
 24 25  1  0
 25 26  1  0
 25 27  2  0
  7 28  1  0
 28 29  2  0
 29 30  1  0
 30 31  1  0
 31 32  1  0
 30 33  2  0
 33 34  1  0
 34 35  1  0
 33 36  1  0
 36 37  2  0
 37  4  1  0
 20  9  1  0
 37 28  1  0
 18 11  1  0
  1 38  1  0
  1 39  1  0
  1 40  1  0
  2 41  1  0
  2 42  1  0
  3 43  1  0
  3 44  1  0
  6 45  1  0
  8 46  1  0
  8 47  1  0
 10 48  1  0
 12 49  1  0
 15 50  1  0
 15 51  1  0
 15 52  1  0
 16 53  1  0
 17 54  1  0
 21 55  1  0
 22 56  1  0
 22 57  1  0
 23 58  1  0
 23 59  1  0
 24 60  1  0
 26 61  1  0
 26 62  1  0
 26 63  1  0
 29 64  1  0
 32 65  1  0
 32 66  1  0
 32 67  1  0
 35 68  1  0
 35 69  1  0
 35 70  1  0
 36 71  1  0
M  END
$$$$

     RDKit          3D

 66 69  0  0  0  0  0  0  0  0999 V2000
   -3.6713   -4.4408   -0.1712 C   0  0  0  0  0  0  0  0  0  0  0  0
   -4.1910   -3.3760   -1.1342 C   0  0  0  0  0  0  0  0  0  0  0  0
   -3.1384   -2.3177   -1.4013 C   0  0  0  0  0  0  0  0  0  0  0  0
   -2.4295   -2.4019   -2.5621 N   0  0  0  0  0  0  0  0  0  0  0  0
   -1.4602   -1.5122   -2.8966 C   0  0  0  0  0  0  0  0  0  0  0  0
   -0.8359   -1.6683   -3.9815 O   0  0  0  0  0  0  0  0  0  0  0  0
   -1.1516   -0.4352   -2.0452 C   0  0  0  0  0  0  0  0  0  0  0  0
   -0.0563    0.5477   -2.4456 C   0  0  0  0  0  0  0  0  0  0  0  0
    1.2378    0.4034   -1.6567 C   0  0  0  0  0  0  0  0  0  0  0  0
    1.5264   -0.7730   -0.9330 C   0  0  0  0  0  0  0  0  0  0  0  0
    2.6976   -0.8752   -0.1763 C   0  0  0  0  0  0  0  0  0  0  0  0
    2.9850   -2.0296    0.5691 C   0  0  0  0  0  0  0  0  0  0  0  0
    4.1696   -2.1052    1.3293 C   0  0  0  0  0  0  0  0  0  0  0  0
    4.5023   -3.2340    2.0931 O   0  0  0  0  0  0  0  0  0  0  0  0
    3.6992   -4.4059    2.1894 C   0  0  0  0  0  0  0  0  0  0  0  0
    5.0543   -1.0193    1.3303 C   0  0  0  0  0  0  0  0  0  0  0  0
    4.7718    0.1299    0.5868 C   0  0  0  0  0  0  0  0  0  0  0  0
    3.5964    0.2057   -0.1656 C   0  0  0  0  0  0  0  0  0  0  0  0
    3.3250    1.3176   -0.8933 N   0  0  0  0  0  0  0  0  0  0  0  0
    2.1931    1.4515   -1.6394 C   0  0  0  0  0  0  0  0  0  0  0  0
    2.0005    2.6563   -2.4047 N   0  0  0  0  0  0  0  0  0  0  0  0
    2.8326    3.8452   -2.2192 C   0  0  0  0  0  0  0  0  0  0  0  0
    2.5147    4.5342   -0.8929 C   0  0  0  0  0  0  0  0  0  0  0  0
    1.1501    4.8977   -0.8653 O   0  0  0  0  0  0  0  0  0  0  0  0
    0.8738    5.5786    0.3379 C   0  0  0  0  0  0  0  0  0  0  0  0
   -1.8523   -0.3197   -0.8145 C   0  0  0  0  0  0  0  0  0  0  0  0
   -1.5609    0.7113    0.1055 C   0  0  0  0  0  0  0  0  0  0  0  0
   -2.2516    0.8200    1.3231 C   0  0  0  0  0  0  0  0  0  0  0  0
   -1.9702    1.8353    2.2521 O   0  0  0  0  0  0  0  0  0  0  0  0
   -0.9891    2.8511    2.0692 C   0  0  0  0  0  0  0  0  0  0  0  0
   -3.2518   -0.1025    1.6366 C   0  0  0  0  0  0  0  0  0  0  0  0
   -3.9245    0.0401    2.8619 O   0  0  0  0  0  0  0  0  0  0  0  0
   -4.9637   -0.8185    3.3217 C   0  0  0  0  0  0  0  0  0  0  0  0
   -3.5540   -1.1355    0.7340 C   0  0  0  0  0  0  0  0  0  0  0  0
   -2.8599   -1.2660   -0.4886 C   0  0  0  0  0  0  0  0  0  0  0  0
   -2.7831   -4.9467   -0.6069 H   0  0  0  0  0  0  0  0  0  0  0  0
   -3.3882   -3.9960    0.8049 H   0  0  0  0  0  0  0  0  0  0  0  0
   -4.4618   -5.2007    0.0035 H   0  0  0  0  0  0  0  0  0  0  0  0
   -4.4708   -3.8826   -2.0830 H   0  0  0  0  0  0  0  0  0  0  0  0
   -5.1289   -2.9204   -0.7539 H   0  0  0  0  0  0  0  0  0  0  0  0
   -2.6233   -3.1871   -3.2254 H   0  0  0  0  0  0  0  0  0  0  0  0
    0.1879    0.4700   -3.5259 H   0  0  0  0  0  0  0  0  0  0  0  0
   -0.4694    1.5701   -2.3159 H   0  0  0  0  0  0  0  0  0  0  0  0
    0.8423   -1.6116   -0.9475 H   0  0  0  0  0  0  0  0  0  0  0  0
    2.2884   -2.8580    0.5560 H   0  0  0  0  0  0  0  0  0  0  0  0
    4.2017   -5.1361    2.8560 H   0  0  0  0  0  0  0  0  0  0  0  0
    2.7076   -4.1545    2.6210 H   0  0  0  0  0  0  0  0  0  0  0  0
    3.5748   -4.8669    1.1871 H   0  0  0  0  0  0  0  0  0  0  0  0
    5.9669   -1.0674    1.9111 H   0  0  0  0  0  0  0  0  0  0  0  0
    5.4681    0.9593    0.5968 H   0  0  0  0  0  0  0  0  0  0  0  0
    1.3037    2.6826   -3.1813 H   0  0  0  0  0  0  0  0  0  0  0  0
    2.6438    4.5604   -3.0495 H   0  0  0  0  0  0  0  0  0  0  0  0
    3.9075    3.5653   -2.2548 H   0  0  0  0  0  0  0  0  0  0  0  0
    3.1657    5.4351   -0.8125 H   0  0  0  0  0  0  0  0  0  0  0  0
    2.7553    3.8402   -0.0556 H   0  0  0  0  0  0  0  0  0  0  0  0
   -0.2070    5.8273    0.3629 H   0  0  0  0  0  0  0  0  0  0  0  0
    1.4408    6.5342    0.3970 H   0  0  0  0  0  0  0  0  0  0  0  0
    1.0932    4.9425    1.2244 H   0  0  0  0  0  0  0  0  0  0  0  0
   -0.7895    1.4327   -0.1083 H   0  0  0  0  0  0  0  0  0  0  0  0
   -0.9850    3.5164    2.9564 H   0  0  0  0  0  0  0  0  0  0  0  0
    0.0184    2.3961    1.9622 H   0  0  0  0  0  0  0  0  0  0  0  0
   -1.2325    3.4577    1.1718 H   0  0  0  0  0  0  0  0  0  0  0  0
   -5.8225   -0.7892    2.6186 H   0  0  0  0  0  0  0  0  0  0  0  0
   -4.5850   -1.8577    3.4219 H   0  0  0  0  0  0  0  0  0  0  0  0
   -5.3080   -0.4694    4.3162 H   0  0  0  0  0  0  0  0  0  0  0  0
   -4.3290   -1.8349    1.0001 H   0  0  0  0  0  0  0  0  0  0  0  0
  1  2  1  0
  2  3  1  0
  3  4  1  0
  4  5  1  0
  5  6  2  0
  5  7  1  0
  7  8  1  0
  8  9  1  0
  9 10  2  0
 10 11  1  0
 11 12  2  0
 12 13  1  0
 13 14  1  0
 14 15  1  0
 13 16  2  0
 16 17  1  0
 17 18  2  0
 18 19  1  0
 19 20  2  0
 20 21  1  0
 21 22  1  0
 22 23  1  0
 23 24  1  0
 24 25  1  0
  7 26  2  0
 26 27  1  0
 27 28  2  0
 28 29  1  0
 29 30  1  0
 28 31  1  0
 31 32  1  0
 32 33  1  0
 31 34  2  0
 34 35  1  0
 35  3  2  0
 20  9  1  0
 35 26  1  0
 18 11  1  0
  1 36  1  0
  1 37  1  0
  1 38  1  0
  2 39  1  0
  2 40  1  0
  4 41  1  0
  8 42  1  0
  8 43  1  0
 10 44  1  0
 12 45  1  0
 15 46  1  0
 15 47  1  0
 15 48  1  0
 16 49  1  0
 17 50  1  0
 21 51  1  0
 22 52  1  0
 22 53  1  0
 23 54  1  0
 23 55  1  0
 25 56  1  0
 25 57  1  0
 25 58  1  0
 27 59  1  0
 30 60  1  0
 30 61  1  0
 30 62  1  0
 33 63  1  0
 33 64  1  0
 33 65  1  0
 34 66  1  0
M  END
$$$$

     RDKit          3D

 67 70  0  0  0  0  0  0  0  0999 V2000
    3.4647   -3.7197   -2.5569 C   0  0  0  0  0  0  0  0  0  0  0  0
    3.9841   -2.5313   -3.3595 C   0  0  0  0  0  0  0  0  0  0  0  0
    3.0957   -1.3799   -3.2048 N   0  0  0  0  0  0  0  0  0  0  0  0
    3.0053   -0.6382   -1.9746 C   0  0  0  0  0  0  0  0  0  0  0  0
    4.0034   -0.7616   -1.0550 N   0  0  0  0  0  0  0  0  0  0  0  0
    4.0238   -0.0540    0.1024 C   0  0  0  0  0  0  0  0  0  0  0  0
    5.0687   -0.2289    1.0136 C   0  0  0  0  0  0  0  0  0  0  0  0
    5.0954    0.5097    2.2005 C   0  0  0  0  0  0  0  0  0  0  0  0
    4.0740    1.4382    2.4844 C   0  0  0  0  0  0  0  0  0  0  0  0
    4.0575    2.2004    3.6620 O   0  0  0  0  0  0  0  0  0  0  0  0
    5.0403    2.1138    4.6898 C   0  0  0  0  0  0  0  0  0  0  0  0
    3.0323    1.6147    1.5646 C   0  0  0  0  0  0  0  0  0  0  0  0
    3.0003    0.8708    0.3758 C   0  0  0  0  0  0  0  0  0  0  0  0
    1.9609    1.0217   -0.5466 C   0  0  0  0  0  0  0  0  0  0  0  0
    1.9191    0.2347   -1.7147 C   0  0  0  0  0  0  0  0  0  0  0  0
    0.7469    0.3469   -2.6777 C   0  0  0  0  0  0  0  0  0  0  0  0
   -0.5708    0.6864   -1.9868 C   0  0  0  0  0  0  0  0  0  0  0  0
   -1.1841    1.9282   -2.2330 C   0  0  0  0  0  0  0  0  0  0  0  0
   -0.6655    2.7475   -3.0399 O   0  0  0  0  0  0  0  0  0  0  0  0
   -2.3375    2.2688   -1.6020 N   0  0  0  0  0  0  0  0  0  0  0  0
   -2.9481    1.4565   -0.6887 C   0  0  0  0  0  0  0  0  0  0  0  0
   -4.2229    1.9164    0.0086 C   0  0  0  0  0  0  0  0  0  0  0  0
   -4.4973    3.3407   -0.2092 N   0  0  0  0  0  0  0  0  0  0  0  0
   -6.0739    3.7484    0.3980 S   0  0  0  0  0  6  0  0  0  0  0  0
   -6.1955    3.3884    2.1386 C   0  0  0  0  0  0  0  0  0  0  0  0
   -6.3079    5.2188    0.1876 O   0  0  0  0  0  0  0  0  0  0  0  0
   -7.1250    2.9729   -0.3469 O   0  0  0  0  0  0  0  0  0  0  0  0
   -2.3992    0.1721   -0.4310 C   0  0  0  0  0  0  0  0  0  0  0  0
   -3.0199   -0.7374    0.4541 C   0  0  0  0  0  0  0  0  0  0  0  0
   -2.4535   -1.9945    0.7229 C   0  0  0  0  0  0  0  0  0  0  0  0
   -3.0421   -2.9038    1.6172 O   0  0  0  0  0  0  0  0  0  0  0  0
   -4.2384   -2.6612    2.3507 C   0  0  0  0  0  0  0  0  0  0  0  0
   -1.2658   -2.3675    0.0907 C   0  0  0  0  0  0  0  0  0  0  0  0
   -0.7226   -3.6288    0.3883 O   0  0  0  0  0  0  0  0  0  0  0  0
    0.5021   -4.1276   -0.1402 C   0  0  0  0  0  0  0  0  0  0  0  0
   -0.6527   -1.4866   -0.8146 C   0  0  0  0  0  0  0  0  0  0  0  0
   -1.1982   -0.2121   -1.0835 C   0  0  0  0  0  0  0  0  0  0  0  0
    3.4394   -3.4780   -1.4742 H   0  0  0  0  0  0  0  0  0  0  0  0
    4.1312   -4.5936   -2.7102 H   0  0  0  0  0  0  0  0  0  0  0  0
    2.4411   -3.9883   -2.8953 H   0  0  0  0  0  0  0  0  0  0  0  0
    5.0131   -2.2673   -3.0323 H   0  0  0  0  0  0  0  0  0  0  0  0
    4.0306   -2.8188   -4.4324 H   0  0  0  0  0  0  0  0  0  0  0  0
    2.5931   -1.0435   -4.0572 H   0  0  0  0  0  0  0  0  0  0  0  0
    5.8615   -0.9369    0.8048 H   0  0  0  0  0  0  0  0  0  0  0  0
    5.9150    0.3538    2.8887 H   0  0  0  0  0  0  0  0  0  0  0  0
    5.0632    1.0860    5.1098 H   0  0  0  0  0  0  0  0  0  0  0  0
    4.7817    2.8257    5.5005 H   0  0  0  0  0  0  0  0  0  0  0  0
    6.0402    2.3825    4.2868 H   0  0  0  0  0  0  0  0  0  0  0  0
    2.2470    2.3293    1.7836 H   0  0  0  0  0  0  0  0  0  0  0  0
    1.1741    1.7368   -0.3415 H   0  0  0  0  0  0  0  0  0  0  0  0
    0.5855   -0.6047   -3.2263 H   0  0  0  0  0  0  0  0  0  0  0  0
    1.0199    1.0983   -3.4489 H   0  0  0  0  0  0  0  0  0  0  0  0
   -2.7479    3.1986   -1.8397 H   0  0  0  0  0  0  0  0  0  0  0  0
   -5.0647    1.3054   -0.3845 H   0  0  0  0  0  0  0  0  0  0  0  0
   -4.1203    1.7383    1.1017 H   0  0  0  0  0  0  0  0  0  0  0  0
   -3.8059    3.8948    0.3485 H   0  0  0  0  0  0  0  0  0  0  0  0
   -6.2365    2.2907    2.2918 H   0  0  0  0  0  0  0  0  0  0  0  0
   -5.3109    3.8027    2.6657 H   0  0  0  0  0  0  0  0  0  0  0  0
   -7.1186    3.8476    2.5492 H   0  0  0  0  0  0  0  0  0  0  0  0
   -3.9506   -0.4831    0.9348 H   0  0  0  0  0  0  0  0  0  0  0  0
   -4.1125   -1.7726    3.0049 H   0  0  0  0  0  0  0  0  0  0  0  0
   -4.4548   -3.5414    2.9896 H   0  0  0  0  0  0  0  0  0  0  0  0
   -5.0894   -2.5089    1.6538 H   0  0  0  0  0  0  0  0  0  0  0  0
    0.4338   -4.2145   -1.2456 H   0  0  0  0  0  0  0  0  0  0  0  0
    0.6951   -5.1351    0.2823 H   0  0  0  0  0  0  0  0  0  0  0  0
    1.3426   -3.4579    0.1422 H   0  0  0  0  0  0  0  0  0  0  0  0
    0.2507   -1.8088   -1.3056 H   0  0  0  0  0  0  0  0  0  0  0  0
  1  2  1  0
  2  3  1  0
  3  4  1  0
  4  5  2  0
  5  6  1  0
  6  7  2  0
  7  8  1  0
  8  9  2  0
  9 10  1  0
 10 11  1  0
  9 12  1  0
 12 13  2  0
 13 14  1  0
 14 15  2  0
 15 16  1  0
 16 17  1  0
 17 18  1  0
 18 19  2  0
 18 20  1  0
 20 21  1  0
 21 22  1  0
 22 23  1  0
 23 24  1  0
 24 25  1  0
 24 26  2  0
 24 27  2  0
 21 28  2  0
 28 29  1  0
 29 30  2  0
 30 31  1  0
 31 32  1  0
 30 33  1  0
 33 34  1  0
 34 35  1  0
 33 36  2  0
 36 37  1  0
 15  4  1  0
 37 17  2  0
 13  6  1  0
 37 28  1  0
  1 38  1  0
  1 39  1  0
  1 40  1  0
  2 41  1  0
  2 42  1  0
  3 43  1  0
  7 44  1  0
  8 45  1  0
 11 46  1  0
 11 47  1  0
 11 48  1  0
 12 49  1  0
 14 50  1  0
 16 51  1  0
 16 52  1  0
 20 53  1  0
 22 54  1  0
 22 55  1  0
 23 56  1  0
 25 57  1  0
 25 58  1  0
 25 59  1  0
 29 60  1  0
 32 61  1  0
 32 62  1  0
 32 63  1  0
 35 64  1  0
 35 65  1  0
 35 66  1  0
 36 67  1  0
M  END
$$$$

     RDKit          3D

 51 55  0  0  0  0  0  0  0  0999 V2000
   -2.8509   -1.1743    4.6129 C   0  0  0  0  0  0  0  0  0  0  0  0
   -3.7286   -0.3909    3.7493 N   0  0  0  0  0  0  0  0  0  0  0  0
   -4.9382    0.0035    4.1161 N   0  0  0  0  0  0  0  0  0  0  0  0
   -5.4549    0.7403    3.1143 C   0  0  0  0  0  0  0  0  0  0  0  0
   -4.5454    0.8074    2.0755 C   0  0  0  0  0  0  0  0  0  0  0  0
   -4.7714    1.4849    0.7883 C   0  0  0  0  0  0  0  0  0  0  0  0
   -5.3737    2.5907    0.7725 O   0  0  0  0  0  0  0  0  0  0  0  0
   -4.3769    0.8878   -0.4487 N   0  0  0  0  0  0  0  0  0  0  0  0
   -3.9634   -0.4322   -0.9635 C   0  0  0  0  0  0  0  0  0  0  0  0
   -3.9875   -0.0546   -2.4069 C   0  0  0  0  0  0  0  0  0  0  0  0
   -4.4116    1.2719   -1.8710 C   0  0  0  0  0  0  0  0  0  0  0  0
   -3.4432    0.0875    2.5170 C   0  0  0  0  0  0  0  0  0  0  0  0
   -2.1366   -0.0576    1.8419 C   0  0  0  0  0  0  0  0  0  0  0  0
   -1.5179   -1.1512    1.9355 O   0  0  0  0  0  0  0  0  0  0  0  0
   -1.5873    1.0262    1.0719 N   0  0  0  0  0  0  0  0  0  0  0  0
   -0.4119    0.9116    0.2545 C   0  0  0  0  0  0  0  0  0  0  0  0
   -0.3801    1.5428   -1.0104 C   0  0  0  0  0  0  0  0  0  0  0  0
    0.7606    1.4591   -1.8252 C   0  0  0  0  0  0  0  0  0  0  0  0
    1.8507    0.7508   -1.3310 C   0  0  0  0  0  0  0  0  0  0  0  0
    3.0327    0.5632   -1.9451 N   0  0  0  0  0  0  0  0  0  0  0  0
    3.6962   -0.1670   -1.0096 C   0  0  0  0  0  0  0  0  0  0  0  0
    5.0392   -0.6334   -1.1874 N   0  0  0  0  0  0  0  0  0  0  0  0
    5.7475   -1.4234   -0.1982 C   0  0  0  0  0  0  0  0  0  0  0  0
    7.0588   -1.8244   -0.8618 C   0  0  0  0  0  0  0  0  0  0  0  0
    7.2189   -0.9026   -2.0704 C   0  0  0  0  0  0  0  0  0  0  0  0
    5.8270   -0.3637   -2.3752 C   0  0  0  0  0  0  0  0  0  0  0  0
    2.9693   -0.4103    0.1076 N   0  0  0  0  0  0  0  0  0  0  0  0
    1.8131    0.1772   -0.1241 N   0  0  0  0  0  0  0  0  0  0  0  0
    0.7381    0.2263    0.7007 C   0  0  0  0  0  0  0  0  0  0  0  0
   -1.9051   -0.6205    4.7907 H   0  0  0  0  0  0  0  0  0  0  0  0
   -2.6281   -2.1516    4.1363 H   0  0  0  0  0  0  0  0  0  0  0  0
   -3.3428   -1.3626    5.5908 H   0  0  0  0  0  0  0  0  0  0  0  0
   -6.4413    1.1846    3.1331 H   0  0  0  0  0  0  0  0  0  0  0  0
   -2.9426   -0.7067   -0.6261 H   0  0  0  0  0  0  0  0  0  0  0  0
   -4.7181   -1.2104   -0.7124 H   0  0  0  0  0  0  0  0  0  0  0  0
   -2.9777   -0.0352   -2.8722 H   0  0  0  0  0  0  0  0  0  0  0  0
   -4.7855   -0.5715   -2.9828 H   0  0  0  0  0  0  0  0  0  0  0  0
   -3.6754    2.0781   -2.0834 H   0  0  0  0  0  0  0  0  0  0  0  0
   -5.4439    1.5466   -2.1830 H   0  0  0  0  0  0  0  0  0  0  0  0
   -2.1318    1.9143    1.0034 H   0  0  0  0  0  0  0  0  0  0  0  0
   -1.2444    2.0892   -1.3646 H   0  0  0  0  0  0  0  0  0  0  0  0
    0.7904    1.9321   -2.7983 H   0  0  0  0  0  0  0  0  0  0  0  0
    5.9385   -0.8049    0.7055 H   0  0  0  0  0  0  0  0  0  0  0  0
    5.1558   -2.3238    0.0761 H   0  0  0  0  0  0  0  0  0  0  0  0
    7.9149   -1.7227   -0.1600 H   0  0  0  0  0  0  0  0  0  0  0  0
    6.9943   -2.8798   -1.2074 H   0  0  0  0  0  0  0  0  0  0  0  0
    7.6409   -1.4488   -2.9418 H   0  0  0  0  0  0  0  0  0  0  0  0
    7.8953   -0.0601   -1.8061 H   0  0  0  0  0  0  0  0  0  0  0  0
    5.3830   -0.8942   -3.2452 H   0  0  0  0  0  0  0  0  0  0  0  0
    5.8653    0.7291   -2.5760 H   0  0  0  0  0  0  0  0  0  0  0  0
    0.7855   -0.2273    1.6818 H   0  0  0  0  0  0  0  0  0  0  0  0
  1  2  1  0
  2  3  1  0
  3  4  2  0
  4  5  1  0
  5  6  1  0
  6  7  2  0
  6  8  1  0
  8  9  1  0
  9 10  1  0
 10 11  1  0
  5 12  2  0
 12 13  1  0
 13 14  2  0
 13 15  1  0
 15 16  1  0
 16 17  1  0
 17 18  2  0
 18 19  1  0
 19 20  2  0
 20 21  1  0
 21 22  1  0
 22 23  1  0
 23 24  1  0
 24 25  1  0
 25 26  1  0
 21 27  2  0
 27 28  1  0
 28 29  1  0
 12  2  1  0
 29 16  2  0
 11  8  1  0
 28 19  1  0
 26 22  1  0
  1 30  1  0
  1 31  1  0
  1 32  1  0
  4 33  1  0
  9 34  1  0
  9 35  1  0
 10 36  1  0
 10 37  1  0
 11 38  1  0
 11 39  1  0
 15 40  1  0
 17 41  1  0
 18 42  1  0
 23 43  1  0
 23 44  1  0
 24 45  1  0
 24 46  1  0
 25 47  1  0
 25 48  1  0
 26 49  1  0
 26 50  1  0
 29 51  1  0
M  END
$$$$

     RDKit          3D

 70 74  0  0  0  0  0  0  0  0999 V2000
  -10.9868   -1.3552    0.3467 C   0  0  0  0  0  0  0  0  0  0  0  0
   -9.6231   -1.3296   -0.0166 O   0  0  0  0  0  0  0  0  0  0  0  0
   -8.9202   -0.3795    0.7615 C   0  0  0  0  0  0  0  0  0  0  0  0
   -8.8489    0.9712    0.0392 C   0  0  0  0  0  0  0  0  0  0  0  0
   -8.3043    0.8168   -1.3109 N   0  0  0  0  0  0  0  0  0  0  0  0
   -6.9019    0.6593   -1.5693 C   0  0  0  0  0  0  0  0  0  0  0  0
   -6.4298    0.6644   -2.8896 C   0  0  0  0  0  0  0  0  0  0  0  0
   -5.0608    0.5408   -3.1338 C   0  0  0  0  0  0  0  0  0  0  0  0
   -4.1704    0.4108   -2.0610 C   0  0  0  0  0  0  0  0  0  0  0  0
   -2.7899    0.2991   -2.2710 C   0  0  0  0  0  0  0  0  0  0  0  0
   -1.9228    0.1816   -1.1810 C   0  0  0  0  0  0  0  0  0  0  0  0
   -2.4225    0.1593    0.1357 C   0  0  0  0  0  0  0  0  0  0  0  0
   -1.5012    0.0324    1.2912 C   0  0  0  0  0  0  0  0  0  0  0  0
   -1.9306    0.1885    2.4648 O   0  0  0  0  0  0  0  0  0  0  0  0
   -0.1157   -0.2722    1.0971 N   0  0  0  0  0  0  0  0  0  0  0  0
    0.2918   -1.6219    0.6935 C   0  0  0  0  0  0  0  0  0  0  0  0
    1.5458   -2.0245    1.4739 C   0  0  0  0  0  0  0  0  0  0  0  0
    2.7297   -1.0089    1.2998 C   0  0  0  0  0  0  0  0  0  0  0  0
    2.2412    0.3559    0.7179 C   0  0  0  0  0  0  0  0  0  0  0  0
    0.8812    0.7846    1.2799 C   0  0  0  0  0  0  0  0  0  0  0  0
    3.7885   -1.6231    0.3161 C   0  0  0  0  0  0  0  0  0  0  0  0
    5.0870   -0.8802    0.4028 C   0  0  0  0  0  0  0  0  0  0  0  0
    6.0307   -0.5865   -0.5522 C   0  0  0  0  0  0  0  0  0  0  0  0
    6.9962    0.1650    0.0362 N   0  0  0  0  0  0  0  0  0  0  0  0
    8.1213    0.8293   -0.6534 C   0  0  0  0  0  0  0  0  0  0  0  0
    8.7930   -0.1425   -1.6482 C   0  0  0  0  0  0  0  0  0  0  0  0
    7.5884    2.0603   -1.4091 C   0  0  0  0  0  0  0  0  0  0  0  0
    9.1807    1.2822    0.3733 C   0  0  0  0  0  0  0  0  0  0  0  0
    6.6708    0.3899    1.3054 N   0  0  0  0  0  0  0  0  0  0  0  0
    5.5213   -0.2668    1.5352 C   0  0  0  0  0  0  0  0  0  0  0  0
    4.6875   -0.2236    2.7267 C   0  0  0  0  0  0  0  0  0  0  0  0
    5.1087    0.2738    3.8042 O   0  0  0  0  0  0  0  0  0  0  0  0
    3.3527   -0.7492    2.6246 N   0  0  0  0  0  0  0  0  0  0  0  0
   -3.8102    0.2778    0.3418 C   0  0  0  0  0  0  0  0  0  0  0  0
   -4.6806    0.4054   -0.7466 C   0  0  0  0  0  0  0  0  0  0  0  0
   -6.0187    0.5319   -0.5395 N   0  0  0  0  0  0  0  0  0  0  0  0
  -11.4527   -0.3487    0.2728 H   0  0  0  0  0  0  0  0  0  0  0  0
  -11.1139   -1.7721    1.3701 H   0  0  0  0  0  0  0  0  0  0  0  0
  -11.5279   -2.0229   -0.3575 H   0  0  0  0  0  0  0  0  0  0  0  0
   -7.8881   -0.7574    0.9168 H   0  0  0  0  0  0  0  0  0  0  0  0
   -9.3483   -0.2362    1.7823 H   0  0  0  0  0  0  0  0  0  0  0  0
   -9.8691    1.4065   -0.0245 H   0  0  0  0  0  0  0  0  0  0  0  0
   -8.2231    1.6832    0.6207 H   0  0  0  0  0  0  0  0  0  0  0  0
   -8.9596    0.9306   -2.1168 H   0  0  0  0  0  0  0  0  0  0  0  0
   -7.1178    0.7678   -3.7203 H   0  0  0  0  0  0  0  0  0  0  0  0
   -4.6998    0.5541   -4.1553 H   0  0  0  0  0  0  0  0  0  0  0  0
   -2.3803    0.3086   -3.2744 H   0  0  0  0  0  0  0  0  0  0  0  0
   -0.8603    0.1208   -1.3754 H   0  0  0  0  0  0  0  0  0  0  0  0
    0.5059   -1.6412   -0.3972 H   0  0  0  0  0  0  0  0  0  0  0  0
   -0.5216   -2.3525    0.9034 H   0  0  0  0  0  0  0  0  0  0  0  0
    1.2523   -2.1008    2.5435 H   0  0  0  0  0  0  0  0  0  0  0  0
    1.8357   -3.0543    1.1698 H   0  0  0  0  0  0  0  0  0  0  0  0
    2.9871    1.1566    0.9187 H   0  0  0  0  0  0  0  0  0  0  0  0
    2.1395    0.2880   -0.3886 H   0  0  0  0  0  0  0  0  0  0  0  0
    0.9742    1.0288    2.3590 H   0  0  0  0  0  0  0  0  0  0  0  0
    0.5522    1.6965    0.7392 H   0  0  0  0  0  0  0  0  0  0  0  0
    3.4121   -1.6310   -0.7314 H   0  0  0  0  0  0  0  0  0  0  0  0
    4.0066   -2.6763    0.6004 H   0  0  0  0  0  0  0  0  0  0  0  0
    5.9859   -0.8544   -1.6009 H   0  0  0  0  0  0  0  0  0  0  0  0
    9.0959   -1.0777   -1.1273 H   0  0  0  0  0  0  0  0  0  0  0  0
    9.6984    0.3193   -2.0989 H   0  0  0  0  0  0  0  0  0  0  0  0
    8.1060   -0.4099   -2.4787 H   0  0  0  0  0  0  0  0  0  0  0  0
    8.4136    2.5902   -1.9340 H   0  0  0  0  0  0  0  0  0  0  0  0
    7.1041    2.7662   -0.7010 H   0  0  0  0  0  0  0  0  0  0  0  0
    6.8300    1.7541   -2.1612 H   0  0  0  0  0  0  0  0  0  0  0  0
    9.5655    0.4093    0.9429 H   0  0  0  0  0  0  0  0  0  0  0  0
   10.0371    1.7758   -0.1357 H   0  0  0  0  0  0  0  0  0  0  0  0
    8.7466    2.0076    1.0944 H   0  0  0  0  0  0  0  0  0  0  0  0
    2.7549   -0.7190    3.4816 H   0  0  0  0  0  0  0  0  0  0  0  0
   -4.2191    0.2738    1.3448 H   0  0  0  0  0  0  0  0  0  0  0  0
  1  2  1  0
  2  3  1  0
  3  4  1  0
  4  5  1  0
  5  6  1  0
  6  7  2  0
  7  8  1  0
  8  9  2  0
  9 10  1  0
 10 11  2  0
 11 12  1  0
 12 13  1  0
 13 14  2  0
 13 15  1  0
 15 16  1  0
 16 17  1  0
 17 18  1  0
 18 19  1  0
 19 20  1  0
 18 21  1  0
 21 22  1  0
 22 23  2  0
 23 24  1  0
 24 25  1  0
 25 26  1  0
 25 27  1  0
 25 28  1  0
 24 29  1  0
 29 30  2  0
 30 31  1  0
 31 32  2  0
 31 33  1  0
 12 34  2  0
 34 35  1  0
 35 36  2  0
 36  6  1  0
 35  9  1  0
 20 15  1  0
 30 22  1  0
 33 18  1  0
  1 37  1  0
  1 38  1  0
  1 39  1  0
  3 40  1  0
  3 41  1  0
  4 42  1  0
  4 43  1  0
  5 44  1  0
  7 45  1  0
  8 46  1  0
 10 47  1  0
 11 48  1  0
 16 49  1  0
 16 50  1  0
 17 51  1  0
 17 52  1  0
 19 53  1  0
 19 54  1  0
 20 55  1  0
 20 56  1  0
 21 57  1  0
 21 58  1  0
 23 59  1  0
 26 60  1  0
 26 61  1  0
 26 62  1  0
 27 63  1  0
 27 64  1  0
 27 65  1  0
 28 66  1  0
 28 67  1  0
 28 68  1  0
 33 69  1  0
 34 70  1  0
M  END
$$$$

     RDKit          3D

 51 55  0  0  0  0  0  0  0  0999 V2000
   -1.2346    1.2979   -3.5764 C   0  0  0  0  0  0  0  0  0  0  0  0
   -2.3691    0.7322   -2.8526 N   0  0  0  0  0  0  0  0  0  0  0  0
   -3.6024    0.7346   -3.3346 N   0  0  0  0  0  0  0  0  0  0  0  0
   -4.4181    0.2193   -2.3949 C   0  0  0  0  0  0  0  0  0  0  0  0
   -3.6780   -0.1064   -1.2724 C   0  0  0  0  0  0  0  0  0  0  0  0
   -4.1681   -0.7665   -0.0460 C   0  0  0  0  0  0  0  0  0  0  0  0
   -3.4479   -1.6459    0.4994 O   0  0  0  0  0  0  0  0  0  0  0  0
   -5.4396   -0.4309    0.5393 N   0  0  0  0  0  0  0  0  0  0  0  0
   -6.0069   -1.1780    1.6494 C   0  0  0  0  0  0  0  0  0  0  0  0
   -7.2945   -0.4539    2.0168 C   0  0  0  0  0  0  0  0  0  0  0  0
   -7.1704    0.9387    1.4071 C   0  0  0  0  0  0  0  0  0  0  0  0
   -6.1639    0.8021    0.2728 C   0  0  0  0  0  0  0  0  0  0  0  0
   -2.3700    0.2157   -1.6025 C   0  0  0  0  0  0  0  0  0  0  0  0
   -1.1939    0.1247   -0.7126 C   0  0  0  0  0  0  0  0  0  0  0  0
   -1.3360    0.3288    0.5234 O   0  0  0  0  0  0  0  0  0  0  0  0
    0.0890   -0.2456   -1.2369 N   0  0  0  0  0  0  0  0  0  0  0  0
    1.3366    0.0686   -0.5958 C   0  0  0  0  0  0  0  0  0  0  0  0
    1.4895    1.2270    0.2085 C   0  0  0  0  0  0  0  0  0  0  0  0
    2.7268    1.5258    0.8029 C   0  0  0  0  0  0  0  0  0  0  0  0
    3.7829    0.6542    0.5596 C   0  0  0  0  0  0  0  0  0  0  0  0
    5.0395    0.7619    1.0258 N   0  0  0  0  0  0  0  0  0  0  0  0
    5.6258   -0.3352    0.4733 C   0  0  0  0  0  0  0  0  0  0  0  0
    7.0455   -0.6918    0.6788 C   0  0  0  0  0  0  0  0  0  0  0  0
    7.8772    0.1044    1.4830 C   0  0  0  0  0  0  0  0  0  0  0  0
    9.2160   -0.2453    1.6677 C   0  0  0  0  0  0  0  0  0  0  0  0
    9.7162   -1.3901    1.0465 C   0  0  0  0  0  0  0  0  0  0  0  0
    8.9026   -2.1534    0.2704 N   0  0  0  0  0  0  0  0  0  0  0  0
    7.5950   -1.8351    0.0743 C   0  0  0  0  0  0  0  0  0  0  0  0
    4.7730   -1.0667   -0.2869 N   0  0  0  0  0  0  0  0  0  0  0  0
    3.6262   -0.4227   -0.2140 N   0  0  0  0  0  0  0  0  0  0  0  0
    2.4564   -0.7576   -0.8113 C   0  0  0  0  0  0  0  0  0  0  0  0
   -0.5196    0.4964   -3.8505 H   0  0  0  0  0  0  0  0  0  0  0  0
   -1.5825    1.7854   -4.5118 H   0  0  0  0  0  0  0  0  0  0  0  0
   -0.7262    2.0595   -2.9481 H   0  0  0  0  0  0  0  0  0  0  0  0
   -5.4771    0.0603   -2.5399 H   0  0  0  0  0  0  0  0  0  0  0  0
   -6.2163   -2.2259    1.3436 H   0  0  0  0  0  0  0  0  0  0  0  0
   -5.3010   -1.1672    2.5086 H   0  0  0  0  0  0  0  0  0  0  0  0
   -7.4328   -0.4033    3.1187 H   0  0  0  0  0  0  0  0  0  0  0  0
   -8.1617   -0.9814    1.5619 H   0  0  0  0  0  0  0  0  0  0  0  0
   -8.1518    1.3090    1.0388 H   0  0  0  0  0  0  0  0  0  0  0  0
   -6.7766    1.6437    2.1720 H   0  0  0  0  0  0  0  0  0  0  0  0
   -6.6995    0.7232   -0.6957 H   0  0  0  0  0  0  0  0  0  0  0  0
   -5.4704    1.6712    0.2599 H   0  0  0  0  0  0  0  0  0  0  0  0
    0.1081   -0.8671   -2.0765 H   0  0  0  0  0  0  0  0  0  0  0  0
    0.6637    1.9095    0.3572 H   0  0  0  0  0  0  0  0  0  0  0  0
    2.8549    2.4071    1.4181 H   0  0  0  0  0  0  0  0  0  0  0  0
    7.4944    0.9938    1.9677 H   0  0  0  0  0  0  0  0  0  0  0  0
    9.8601    0.3657    2.2869 H   0  0  0  0  0  0  0  0  0  0  0  0
   10.7517   -1.6726    1.1812 H   0  0  0  0  0  0  0  0  0  0  0  0
    6.9883   -2.4753   -0.5529 H   0  0  0  0  0  0  0  0  0  0  0  0
    2.3889   -1.6428   -1.4316 H   0  0  0  0  0  0  0  0  0  0  0  0
  1  2  1  0
  2  3  1  0
  3  4  2  0
  4  5  1  0
  5  6  1  0
  6  7  2  0
  6  8  1  0
  8  9  1  0
  9 10  1  0
 10 11  1  0
 11 12  1  0
  5 13  2  0
 13 14  1  0
 14 15  2  0
 14 16  1  0
 16 17  1  0
 17 18  1  0
 18 19  2  0
 19 20  1  0
 20 21  2  0
 21 22  1  0
 22 23  1  0
 23 24  2  0
 24 25  1  0
 25 26  2  0
 26 27  1  0
 27 28  2  0
 22 29  2  0
 29 30  1  0
 30 31  1  0
 13  2  1  0
 31 17  2  0
 12  8  1  0
 30 20  1  0
 28 23  1  0
  1 32  1  0
  1 33  1  0
  1 34  1  0
  4 35  1  0
  9 36  1  0
  9 37  1  0
 10 38  1  0
 10 39  1  0
 11 40  1  0
 11 41  1  0
 12 42  1  0
 12 43  1  0
 16 44  1  0
 18 45  1  0
 19 46  1  0
 24 47  1  0
 25 48  1  0
 26 49  1  0
 28 50  1  0
 31 51  1  0
M  END
$$$$

     RDKit          3D

 67 70  0  0  0  0  0  0  0  0999 V2000
   12.5776   -0.3248    0.3280 C   0  0  0  0  0  0  0  0  0  0  0  0
   12.0084   -1.5529   -0.3710 C   0  0  0  0  0  0  0  0  0  0  0  0
   10.6005   -1.3381   -0.7223 C   0  0  0  0  0  0  0  0  0  0  0  0
    9.4439   -1.1602   -1.0122 C   0  0  0  0  0  0  0  0  0  0  0  0
    8.0659   -0.9444   -1.3574 C   0  0  0  0  0  0  0  0  0  0  0  0
    7.6093   -1.4613   -2.4118 O   0  0  0  0  0  0  0  0  0  0  0  0
    7.2200   -0.1856   -0.4793 N   0  0  0  0  0  0  0  0  0  0  0  0
    5.9021    0.2764   -0.8242 C   0  0  0  0  0  0  0  0  0  0  0  0
    5.5792    0.6600   -2.1374 C   0  0  0  0  0  0  0  0  0  0  0  0
    4.2987    1.1251   -2.4404 C   0  0  0  0  0  0  0  0  0  0  0  0
    3.3317    1.2266   -1.4382 C   0  0  0  0  0  0  0  0  0  0  0  0
    3.6403    0.8726   -0.1133 C   0  0  0  0  0  0  0  0  0  0  0  0
    2.6189    0.9954    0.9563 C   0  0  0  0  0  0  0  0  0  0  0  0
    2.9695    1.5035    2.2365 C   0  0  0  0  0  0  0  0  0  0  0  0
    2.0267    1.6454    3.2145 N   0  0  0  0  0  0  0  0  0  0  0  0
    0.7480    1.2751    2.9607 C   0  0  0  0  0  0  0  0  0  0  0  0
   -0.2873    1.3932    3.8056 N   0  0  0  0  0  0  0  0  0  0  0  0
   -1.3661    0.9432    3.1249 C   0  0  0  0  0  0  0  0  0  0  0  0
   -1.0008    0.5296    1.8427 C   0  0  0  0  0  0  0  0  0  0  0  0
   -1.9058   -0.0198    0.8114 C   0  0  0  0  0  0  0  0  0  0  0  0
   -1.5003   -1.0888   -0.0045 C   0  0  0  0  0  0  0  0  0  0  0  0
   -2.3682   -1.6085   -0.9682 C   0  0  0  0  0  0  0  0  0  0  0  0
   -3.6480   -1.0711   -1.1231 C   0  0  0  0  0  0  0  0  0  0  0  0
   -4.0689   -0.0112   -0.3114 C   0  0  0  0  0  0  0  0  0  0  0  0
   -5.6931    0.6426   -0.5106 S   0  0  0  0  0  6  0  0  0  0  0  0
   -5.8359    1.8990    0.3050 O   0  0  0  0  0  0  0  0  0  0  0  0
   -5.8660    0.9920   -1.9604 O   0  0  0  0  0  0  0  0  0  0  0  0
   -6.8600   -0.5598    0.0283 N   0  0  0  0  0  0  0  0  0  0  0  0
   -6.7291   -0.7029    1.4921 C   0  0  0  0  0  0  0  0  0  0  0  0
   -8.2691   -0.3592   -0.4608 C   0  0  0  0  0  0  0  0  0  0  0  0
   -9.2571   -1.3019    0.2794 C   0  0  0  0  0  0  0  0  0  0  0  0
   -8.7698    1.0944   -0.2769 C   0  0  0  0  0  0  0  0  0  0  0  0
   -8.3506   -0.7435   -1.9574 C   0  0  0  0  0  0  0  0  0  0  0  0
   -3.2004    0.5058    0.6609 C   0  0  0  0  0  0  0  0  0  0  0  0
    0.3622    0.7613    1.7552 C   0  0  0  0  0  0  0  0  0  0  0  0
    1.2767    0.6231    0.7135 C   0  0  0  0  0  0  0  0  0  0  0  0
    4.9333    0.4041    0.1837 C   0  0  0  0  0  0  0  0  0  0  0  0
   13.6457   -0.5003    0.5748 H   0  0  0  0  0  0  0  0  0  0  0  0
   12.5086    0.5648   -0.3347 H   0  0  0  0  0  0  0  0  0  0  0  0
   12.0234   -0.1246    1.2700 H   0  0  0  0  0  0  0  0  0  0  0  0
   12.5866   -1.7565   -1.2971 H   0  0  0  0  0  0  0  0  0  0  0  0
   12.0853   -2.4339    0.3009 H   0  0  0  0  0  0  0  0  0  0  0  0
    7.5588   -0.0205    0.4958 H   0  0  0  0  0  0  0  0  0  0  0  0
    6.3199    0.6272   -2.9246 H   0  0  0  0  0  0  0  0  0  0  0  0
    4.0593    1.4199   -3.4540 H   0  0  0  0  0  0  0  0  0  0  0  0
    2.3515    1.6086   -1.6942 H   0  0  0  0  0  0  0  0  0  0  0  0
    3.9852    1.8153    2.4431 H   0  0  0  0  0  0  0  0  0  0  0  0
   -0.2680    1.7671    4.7804 H   0  0  0  0  0  0  0  0  0  0  0  0
   -2.3659    0.9083    3.5381 H   0  0  0  0  0  0  0  0  0  0  0  0
   -0.5257   -1.5422    0.1215 H   0  0  0  0  0  0  0  0  0  0  0  0
   -2.0507   -2.4351   -1.5907 H   0  0  0  0  0  0  0  0  0  0  0  0
   -4.3136   -1.4846   -1.8705 H   0  0  0  0  0  0  0  0  0  0  0  0
   -7.1948    0.1516    2.0271 H   0  0  0  0  0  0  0  0  0  0  0  0
   -5.6613   -0.7644    1.7913 H   0  0  0  0  0  0  0  0  0  0  0  0
   -7.1803   -1.6568    1.8341 H   0  0  0  0  0  0  0  0  0  0  0  0
   -8.8997   -2.3533    0.2313 H   0  0  0  0  0  0  0  0  0  0  0  0
   -9.3790   -1.0078    1.3437 H   0  0  0  0  0  0  0  0  0  0  0  0
  -10.2714   -1.2607   -0.1745 H   0  0  0  0  0  0  0  0  0  0  0  0
   -8.6769    1.4189    0.7802 H   0  0  0  0  0  0  0  0  0  0  0  0
   -8.2113    1.8065   -0.9189 H   0  0  0  0  0  0  0  0  0  0  0  0
   -9.8406    1.1740   -0.5652 H   0  0  0  0  0  0  0  0  0  0  0  0
   -7.8375   -1.7138   -2.1333 H   0  0  0  0  0  0  0  0  0  0  0  0
   -9.4067   -0.8441   -2.2900 H   0  0  0  0  0  0  0  0  0  0  0  0
   -7.9024    0.0209   -2.6183 H   0  0  0  0  0  0  0  0  0  0  0  0
   -3.5258    1.3228    1.2921 H   0  0  0  0  0  0  0  0  0  0  0  0
    0.9662    0.2460   -0.2512 H   0  0  0  0  0  0  0  0  0  0  0  0
    5.1846    0.1121    1.1961 H   0  0  0  0  0  0  0  0  0  0  0  0
  1  2  1  0
  2  3  1  0
  3  4  3  0
  4  5  1  0
  5  6  2  0
  5  7  1  0
  7  8  1  0
  8  9  2  0
  9 10  1  0
 10 11  2  0
 11 12  1  0
 12 13  1  0
 13 14  2  0
 14 15  1  0
 15 16  2  0
 16 17  1  0
 17 18  1  0
 18 19  2  0
 19 20  1  0
 20 21  2  0
 21 22  1  0
 22 23  2  0
 23 24  1  0
 24 25  1  0
 25 26  2  0
 25 27  2  0
 25 28  1  0
 28 29  1  0
 28 30  1  0
 30 31  1  0
 30 32  1  0
 30 33  1  0
 24 34  2  0
 19 35  1  0
 35 36  2  0
 12 37  2  0
 37  8  1  0
 36 13  1  0
 35 16  1  0
 34 20  1  0
  1 38  1  0
  1 39  1  0
  1 40  1  0
  2 41  1  0
  2 42  1  0
  7 43  1  0
  9 44  1  0
 10 45  1  0
 11 46  1  0
 14 47  1  0
 17 48  1  0
 18 49  1  0
 21 50  1  0
 22 51  1  0
 23 52  1  0
 29 53  1  0
 29 54  1  0
 29 55  1  0
 31 56  1  0
 31 57  1  0
 31 58  1  0
 32 59  1  0
 32 60  1  0
 32 61  1  0
 33 62  1  0
 33 63  1  0
 33 64  1  0
 34 65  1  0
 36 66  1  0
 37 67  1  0
M  END
$$$$

     RDKit          3D

 63 66  0  0  0  0  0  0  0  0999 V2000
    3.8670   -3.3130   -3.4956 C   0  0  0  0  0  0  0  0  0  0  0  0
    3.4909   -1.8961   -3.9152 C   0  0  0  0  0  0  0  0  0  0  0  0
    2.3435   -1.4181   -3.1442 N   0  0  0  0  0  0  0  0  0  0  0  0
    2.4408   -1.1043   -1.7421 C   0  0  0  0  0  0  0  0  0  0  0  0
    3.6734   -0.8573   -1.2152 N   0  0  0  0  0  0  0  0  0  0  0  0
    3.8667   -0.5443    0.0905 C   0  0  0  0  0  0  0  0  0  0  0  0
    5.1566   -0.2995    0.5705 C   0  0  0  0  0  0  0  0  0  0  0  0
    5.3547    0.0236    1.9162 C   0  0  0  0  0  0  0  0  0  0  0  0
    4.2582    0.1046    2.7976 C   0  0  0  0  0  0  0  0  0  0  0  0
    4.4074    0.4253    4.1552 O   0  0  0  0  0  0  0  0  0  0  0  0
    5.6551    0.6984    4.7843 C   0  0  0  0  0  0  0  0  0  0  0  0
    2.9677   -0.1424    2.3115 C   0  0  0  0  0  0  0  0  0  0  0  0
    2.7667   -0.4660    0.9612 C   0  0  0  0  0  0  0  0  0  0  0  0
    1.4883   -0.7212    0.4586 C   0  0  0  0  0  0  0  0  0  0  0  0
    1.2982   -1.0417   -0.8979 C   0  0  0  0  0  0  0  0  0  0  0  0
   -0.1068   -1.3749   -1.3648 C   0  0  0  0  0  0  0  0  0  0  0  0
   -1.0413   -0.1761   -1.2248 C   0  0  0  0  0  0  0  0  0  0  0  0
   -0.9410    0.8517   -2.1816 C   0  0  0  0  0  0  0  0  0  0  0  0
   -0.0697    0.7900   -3.0916 O   0  0  0  0  0  0  0  0  0  0  0  0
   -1.7769    1.9198   -2.1475 N   0  0  0  0  0  0  0  0  0  0  0  0
   -2.7609    2.0559   -1.2127 C   0  0  0  0  0  0  0  0  0  0  0  0
   -3.6906    3.2626   -1.2702 C   0  0  0  0  0  0  0  0  0  0  0  0
   -3.5246    4.0246   -2.4525 O   0  0  0  0  0  0  0  0  0  0  0  0
   -4.3700    3.5365   -3.4725 C   0  0  0  0  0  0  0  0  0  0  0  0
   -2.8707    1.0900   -0.1784 C   0  0  0  0  0  0  0  0  0  0  0  0
   -3.8100    1.2356    0.8665 C   0  0  0  0  0  0  0  0  0  0  0  0
   -3.9138    0.2833    1.8914 C   0  0  0  0  0  0  0  0  0  0  0  0
   -4.8454    0.4070    2.9358 O   0  0  0  0  0  0  0  0  0  0  0  0
   -5.7759    1.4764    3.0720 C   0  0  0  0  0  0  0  0  0  0  0  0
   -3.0671   -0.8250    1.8926 C   0  0  0  0  0  0  0  0  0  0  0  0
   -3.1915   -1.7504    2.9427 O   0  0  0  0  0  0  0  0  0  0  0  0
   -2.3935   -2.9202    3.0952 C   0  0  0  0  0  0  0  0  0  0  0  0
   -2.1213   -0.9819    0.8659 C   0  0  0  0  0  0  0  0  0  0  0  0
   -2.0056   -0.0401   -0.1836 C   0  0  0  0  0  0  0  0  0  0  0  0
    4.1868   -3.3320   -2.4325 H   0  0  0  0  0  0  0  0  0  0  0  0
    4.7059   -3.6777   -4.1248 H   0  0  0  0  0  0  0  0  0  0  0  0
    2.9981   -3.9919   -3.6274 H   0  0  0  0  0  0  0  0  0  0  0  0
    4.3564   -1.2130   -3.7766 H   0  0  0  0  0  0  0  0  0  0  0  0
    3.2320   -1.9025   -4.9963 H   0  0  0  0  0  0  0  0  0  0  0  0
    1.4731   -1.2154   -3.6795 H   0  0  0  0  0  0  0  0  0  0  0  0
    6.0074   -0.3590   -0.0972 H   0  0  0  0  0  0  0  0  0  0  0  0
    6.3629    0.2083    2.2611 H   0  0  0  0  0  0  0  0  0  0  0  0
    5.4794    0.9214    5.8566 H   0  0  0  0  0  0  0  0  0  0  0  0
    6.1359    1.5808    4.3118 H   0  0  0  0  0  0  0  0  0  0  0  0
    6.3220   -0.1863    4.7098 H   0  0  0  0  0  0  0  0  0  0  0  0
    2.1250   -0.0810    2.9904 H   0  0  0  0  0  0  0  0  0  0  0  0
    0.6398   -0.6761    1.1282 H   0  0  0  0  0  0  0  0  0  0  0  0
   -0.1422   -1.7261   -2.4118 H   0  0  0  0  0  0  0  0  0  0  0  0
   -0.4545   -2.2707   -0.8223 H   0  0  0  0  0  0  0  0  0  0  0  0
   -1.6460    2.6499   -2.8830 H   0  0  0  0  0  0  0  0  0  0  0  0
   -3.4420    3.9215   -0.4118 H   0  0  0  0  0  0  0  0  0  0  0  0
   -4.7513    2.9458   -1.1318 H   0  0  0  0  0  0  0  0  0  0  0  0
   -5.4358    3.7435   -3.2322 H   0  0  0  0  0  0  0  0  0  0  0  0
   -4.2175    2.4478   -3.6470 H   0  0  0  0  0  0  0  0  0  0  0  0
   -4.1278    4.0659   -4.4166 H   0  0  0  0  0  0  0  0  0  0  0  0
   -4.4561    2.0975    0.9054 H   0  0  0  0  0  0  0  0  0  0  0  0
   -6.4507    1.5105    2.1906 H   0  0  0  0  0  0  0  0  0  0  0  0
   -5.2364    2.4410    3.1803 H   0  0  0  0  0  0  0  0  0  0  0  0
   -6.3888    1.3094    3.9813 H   0  0  0  0  0  0  0  0  0  0  0  0
   -2.7131   -3.4596    4.0101 H   0  0  0  0  0  0  0  0  0  0  0  0
   -2.5292   -3.5923    2.2216 H   0  0  0  0  0  0  0  0  0  0  0  0
   -1.3238   -2.6416    3.2035 H   0  0  0  0  0  0  0  0  0  0  0  0
   -1.4679   -1.8310    0.9265 H   0  0  0  0  0  0  0  0  0  0  0  0
  1  2  1  0
  2  3  1  0
  3  4  1  0
  4  5  2  0
  5  6  1  0
  6  7  2  0
  7  8  1  0
  8  9  2  0
  9 10  1  0
 10 11  1  0
  9 12  1  0
 12 13  2  0
 13 14  1  0
 14 15  2  0
 15 16  1  0
 16 17  1  0
 17 18  1  0
 18 19  2  0
 18 20  1  0
 20 21  1  0
 21 22  1  0
 22 23  1  0
 23 24  1  0
 21 25  2  0
 25 26  1  0
 26 27  2  0
 27 28  1  0
 28 29  1  0
 27 30  1  0
 30 31  1  0
 31 32  1  0
 30 33  2  0
 33 34  1  0
 15  4  1  0
 34 17  2  0
 13  6  1  0
 34 25  1  0
  1 35  1  0
  1 36  1  0
  1 37  1  0
  2 38  1  0
  2 39  1  0
  3 40  1  0
  7 41  1  0
  8 42  1  0
 11 43  1  0
 11 44  1  0
 11 45  1  0
 12 46  1  0
 14 47  1  0
 16 48  1  0
 16 49  1  0
 20 50  1  0
 22 51  1  0
 22 52  1  0
 24 53  1  0
 24 54  1  0
 24 55  1  0
 26 56  1  0
 29 57  1  0
 29 58  1  0
 29 59  1  0
 32 60  1  0
 32 61  1  0
 32 62  1  0
 33 63  1  0
M  END
$$$$

     RDKit          3D

 68 71  0  0  0  0  0  0  0  0999 V2000
   -4.8469    0.2691    3.2026 C   0  0  0  0  0  0  0  0  0  0  0  0
   -3.5501   -0.0574    3.9404 C   0  0  0  0  0  0  0  0  0  0  0  0
   -2.6086   -0.9485    3.1187 C   0  0  0  0  0  0  0  0  0  0  0  0
   -1.9942   -0.2013    1.9467 C   0  0  0  0  0  0  0  0  0  0  0  0
   -0.9419    0.6204    2.2181 N   0  0  0  0  0  0  0  0  0  0  0  0
   -0.2285    1.2475    1.2491 C   0  0  0  0  0  0  0  0  0  0  0  0
    0.7448    1.9789    1.5842 O   0  0  0  0  0  0  0  0  0  0  0  0
   -0.5563    1.0754   -0.1109 C   0  0  0  0  0  0  0  0  0  0  0  0
    0.3945    1.6401   -1.1706 C   0  0  0  0  0  0  0  0  0  0  0  0
    1.8243    1.1802   -0.9567 C   0  0  0  0  0  0  0  0  0  0  0  0
    2.8365    2.1365   -0.7764 C   0  0  0  0  0  0  0  0  0  0  0  0
    4.1540    1.7335   -0.5290 C   0  0  0  0  0  0  0  0  0  0  0  0
    5.1799    2.6734   -0.3480 C   0  0  0  0  0  0  0  0  0  0  0  0
    6.4986    2.2431   -0.0938 C   0  0  0  0  0  0  0  0  0  0  0  0
    7.5598    3.1432    0.0881 O   0  0  0  0  0  0  0  0  0  0  0  0
    7.4317    4.5610    0.0128 C   0  0  0  0  0  0  0  0  0  0  0  0
    6.7710    0.8705   -0.0180 C   0  0  0  0  0  0  0  0  0  0  0  0
    5.7514   -0.0689   -0.1984 C   0  0  0  0  0  0  0  0  0  0  0  0
    4.4445    0.3567   -0.4569 C   0  0  0  0  0  0  0  0  0  0  0  0
    3.4564   -0.5554   -0.6484 N   0  0  0  0  0  0  0  0  0  0  0  0
    2.1696   -0.1925   -0.9096 C   0  0  0  0  0  0  0  0  0  0  0  0
    1.1816   -1.2116   -1.1330 N   0  0  0  0  0  0  0  0  0  0  0  0
    1.2751   -2.5417   -0.5197 C   0  0  0  0  0  0  0  0  0  0  0  0
    1.1442   -2.4328    1.0043 C   0  0  0  0  0  0  0  0  0  0  0  0
    0.1835   -3.4614   -1.0788 C   0  0  0  0  0  0  0  0  0  0  0  0
   -1.7468    0.3556   -0.4284 C   0  0  0  0  0  0  0  0  0  0  0  0
   -2.2648    0.3043   -1.7437 C   0  0  0  0  0  0  0  0  0  0  0  0
   -3.4038   -0.4570   -2.0558 C   0  0  0  0  0  0  0  0  0  0  0  0
   -3.9193   -0.5329   -3.3615 O   0  0  0  0  0  0  0  0  0  0  0  0
   -3.3441    0.1047   -4.4985 C   0  0  0  0  0  0  0  0  0  0  0  0
   -4.0610   -1.1615   -1.0488 C   0  0  0  0  0  0  0  0  0  0  0  0
   -5.1887   -1.9230   -1.4008 O   0  0  0  0  0  0  0  0  0  0  0  0
   -5.9788   -2.6767   -0.4859 C   0  0  0  0  0  0  0  0  0  0  0  0
   -3.5946   -1.0833    0.2727 C   0  0  0  0  0  0  0  0  0  0  0  0
   -2.4503   -0.3259    0.6060 C   0  0  0  0  0  0  0  0  0  0  0  0
   -5.5008    0.8826    3.8591 H   0  0  0  0  0  0  0  0  0  0  0  0
   -5.3890   -0.6640    2.9403 H   0  0  0  0  0  0  0  0  0  0  0  0
   -4.6373    0.8486    2.2792 H   0  0  0  0  0  0  0  0  0  0  0  0
   -3.0345    0.8884    4.2179 H   0  0  0  0  0  0  0  0  0  0  0  0
   -3.8070   -0.5890    4.8815 H   0  0  0  0  0  0  0  0  0  0  0  0
   -1.7802   -1.2776    3.7842 H   0  0  0  0  0  0  0  0  0  0  0  0
   -3.1078   -1.8944    2.8331 H   0  0  0  0  0  0  0  0  0  0  0  0
   -0.6370    0.7469    3.2106 H   0  0  0  0  0  0  0  0  0  0  0  0
    0.1492    1.3424   -2.2045 H   0  0  0  0  0  0  0  0  0  0  0  0
    0.3215    2.7497   -1.1434 H   0  0  0  0  0  0  0  0  0  0  0  0
    2.5951    3.1931   -0.8187 H   0  0  0  0  0  0  0  0  0  0  0  0
    4.9481    3.7294   -0.4056 H   0  0  0  0  0  0  0  0  0  0  0  0
    8.4244    5.0265    0.1860 H   0  0  0  0  0  0  0  0  0  0  0  0
    7.0717    4.8591   -0.9964 H   0  0  0  0  0  0  0  0  0  0  0  0
    6.7310    4.9241    0.7963 H   0  0  0  0  0  0  0  0  0  0  0  0
    7.7805    0.5315    0.1812 H   0  0  0  0  0  0  0  0  0  0  0  0
    5.9793   -1.1272   -0.1390 H   0  0  0  0  0  0  0  0  0  0  0  0
    0.3908   -1.0055   -1.7832 H   0  0  0  0  0  0  0  0  0  0  0  0
    2.2626   -2.9909   -0.7676 H   0  0  0  0  0  0  0  0  0  0  0  0
    1.2753   -3.4342    1.4706 H   0  0  0  0  0  0  0  0  0  0  0  0
    0.1481   -2.0301    1.2811 H   0  0  0  0  0  0  0  0  0  0  0  0
    1.9275   -1.7601    1.4127 H   0  0  0  0  0  0  0  0  0  0  0  0
   -0.8209   -3.0111   -0.9230 H   0  0  0  0  0  0  0  0  0  0  0  0
    0.3412   -3.6096   -2.1674 H   0  0  0  0  0  0  0  0  0  0  0  0
    0.2146   -4.4525   -0.5806 H   0  0  0  0  0  0  0  0  0  0  0  0
   -1.8299    0.8863   -2.5344 H   0  0  0  0  0  0  0  0  0  0  0  0
   -3.9397   -0.1565   -5.3961 H   0  0  0  0  0  0  0  0  0  0  0  0
   -2.3004   -0.2465   -4.6480 H   0  0  0  0  0  0  0  0  0  0  0  0
   -3.3638    1.2072   -4.3690 H   0  0  0  0  0  0  0  0  0  0  0  0
   -6.8026   -3.1739   -1.0414 H   0  0  0  0  0  0  0  0  0  0  0  0
   -6.4222   -2.0026    0.2784 H   0  0  0  0  0  0  0  0  0  0  0  0
   -5.3562   -3.4548    0.0040 H   0  0  0  0  0  0  0  0  0  0  0  0
   -4.1547   -1.5976    1.0299 H   0  0  0  0  0  0  0  0  0  0  0  0
  1  2  1  0
  2  3  1  0
  3  4  1  0
  4  5  1  0
  5  6  1  0
  6  7  2  0
  6  8  1  0
  8  9  1  0
  9 10  1  0
 10 11  2  0
 11 12  1  0
 12 13  2  0
 13 14  1  0
 14 15  1  0
 15 16  1  0
 14 17  2  0
 17 18  1  0
 18 19  2  0
 19 20  1  0
 20 21  2  0
 21 22  1  0
 22 23  1  0
 23 24  1  0
 23 25  1  0
  8 26  2  0
 26 27  1  0
 27 28  2  0
 28 29  1  0
 29 30  1  0
 28 31  1  0
 31 32  1  0
 32 33  1  0
 31 34  2  0
 34 35  1  0
 35  4  2  0
 21 10  1  0
 35 26  1  0
 19 12  1  0
  1 36  1  0
  1 37  1  0
  1 38  1  0
  2 39  1  0
  2 40  1  0
  3 41  1  0
  3 42  1  0
  5 43  1  0
  9 44  1  0
  9 45  1  0
 11 46  1  0
 13 47  1  0
 16 48  1  0
 16 49  1  0
 16 50  1  0
 17 51  1  0
 18 52  1  0
 22 53  1  0
 23 54  1  0
 24 55  1  0
 24 56  1  0
 24 57  1  0
 25 58  1  0
 25 59  1  0
 25 60  1  0
 27 61  1  0
 30 62  1  0
 30 63  1  0
 30 64  1  0
 33 65  1  0
 33 66  1  0
 33 67  1  0
 34 68  1  0
M  END
$$$$

     RDKit          3D

 66 70  0  0  0  0  0  0  0  0999 V2000
   -7.6817    0.6388    1.5802 C   0  0  0  0  0  0  0  0  0  0  0  0
   -6.2365    1.0435    1.9427 C   0  0  0  0  0  0  0  0  0  0  0  0
   -5.7779    0.2100    3.1540 C   0  0  0  0  0  0  0  0  0  0  0  0
   -6.2176    2.5408    2.3046 C   0  0  0  0  0  0  0  0  0  0  0  0
   -5.3268    0.7986    0.8057 N   0  0  0  0  0  0  0  0  0  0  0  0
   -3.9918    1.0424    0.7877 C   0  0  0  0  0  0  0  0  0  0  0  0
   -3.5124    0.6630   -0.4441 C   0  0  0  0  0  0  0  0  0  0  0  0
   -4.6035    0.2327   -1.1326 C   0  0  0  0  0  0  0  0  0  0  0  0
   -5.7080    0.3071   -0.3706 N   0  0  0  0  0  0  0  0  0  0  0  0
   -4.4905   -0.2086   -2.5142 C   0  0  0  0  0  0  0  0  0  0  0  0
   -5.5076   -0.5150   -3.1901 O   0  0  0  0  0  0  0  0  0  0  0  0
   -3.1731   -0.2742   -3.0861 N   0  0  0  0  0  0  0  0  0  0  0  0
   -1.9592   -0.2043   -2.2327 C   0  0  0  0  0  0  0  0  0  0  0  0
   -0.7530    0.2494   -3.1128 C   0  0  0  0  0  0  0  0  0  0  0  0
    0.5931   -0.2172   -2.5448 C   0  0  0  0  0  0  0  0  0  0  0  0
    0.6148   -1.6785   -2.3836 N   0  0  0  0  0  0  0  0  0  0  0  0
    1.8408   -2.4200   -2.5133 C   0  0  0  0  0  0  0  0  0  0  0  0
    1.9157   -3.3290   -3.3850 O   0  0  0  0  0  0  0  0  0  0  0  0
    2.9516   -2.2665   -1.5454 C   0  0  0  0  0  0  0  0  0  0  0  0
    3.5366   -3.4208   -0.9940 C   0  0  0  0  0  0  0  0  0  0  0  0
    4.5730   -3.3212   -0.0619 C   0  0  0  0  0  0  0  0  0  0  0  0
    5.0503   -2.0625    0.3232 C   0  0  0  0  0  0  0  0  0  0  0  0
    6.0855   -1.9305    1.2552 C   0  0  0  0  0  0  0  0  0  0  0  0
    6.5466   -0.6607    1.6088 C   0  0  0  0  0  0  0  0  0  0  0  0
    5.9683    0.4795    1.0206 C   0  0  0  0  0  0  0  0  0  0  0  0
    6.4129    1.8081    1.3413 N   0  0  0  0  0  0  0  0  0  0  0  0
    7.4617    2.0914    2.3238 C   0  0  0  0  0  0  0  0  0  0  0  0
    7.7198    3.5932    2.4468 C   0  0  0  0  0  0  0  0  0  0  0  0
    8.1362    4.1034    1.2304 F   0  0  0  0  0  0  0  0  0  0  0  0
    8.7073    3.8148    3.3884 F   0  0  0  0  0  0  0  0  0  0  0  0
    6.5654    4.2426    2.8447 F   0  0  0  0  0  0  0  0  0  0  0  0
    4.9599    0.3244    0.1186 N   0  0  0  0  0  0  0  0  0  0  0  0
    4.4867   -0.8994   -0.2397 C   0  0  0  0  0  0  0  0  0  0  0  0
    3.4456   -1.0040   -1.1690 C   0  0  0  0  0  0  0  0  0  0  0  0
   -0.6495   -2.4238   -2.3650 C   0  0  0  0  0  0  0  0  0  0  0  0
   -1.7132   -1.6209   -1.6126 C   0  0  0  0  0  0  0  0  0  0  0  0
   -2.1662    0.8400   -1.0763 C   0  0  0  0  0  0  0  0  0  0  0  0
   -8.3683    0.8200    2.4354 H   0  0  0  0  0  0  0  0  0  0  0  0
   -7.7303   -0.4401    1.3182 H   0  0  0  0  0  0  0  0  0  0  0  0
   -8.0459    1.2283    0.7116 H   0  0  0  0  0  0  0  0  0  0  0  0
   -6.4700    0.3479    4.0128 H   0  0  0  0  0  0  0  0  0  0  0  0
   -5.7524   -0.8691    2.8893 H   0  0  0  0  0  0  0  0  0  0  0  0
   -4.7599    0.5118    3.4798 H   0  0  0  0  0  0  0  0  0  0  0  0
   -5.2028    2.8567    2.6276 H   0  0  0  0  0  0  0  0  0  0  0  0
   -6.5095    3.1530    1.4241 H   0  0  0  0  0  0  0  0  0  0  0  0
   -6.9258    2.7552    3.1344 H   0  0  0  0  0  0  0  0  0  0  0  0
   -3.4202    1.4779    1.5969 H   0  0  0  0  0  0  0  0  0  0  0  0
   -3.0914   -0.5889   -4.0795 H   0  0  0  0  0  0  0  0  0  0  0  0
   -0.8438   -0.1779   -4.1360 H   0  0  0  0  0  0  0  0  0  0  0  0
   -0.7402    1.3538   -3.2401 H   0  0  0  0  0  0  0  0  0  0  0  0
    1.3932    0.0999   -3.2489 H   0  0  0  0  0  0  0  0  0  0  0  0
    0.7638    0.2662   -1.5595 H   0  0  0  0  0  0  0  0  0  0  0  0
    3.1764   -4.4040   -1.2721 H   0  0  0  0  0  0  0  0  0  0  0  0
    4.9983   -4.2255    0.3569 H   0  0  0  0  0  0  0  0  0  0  0  0
    6.5376   -2.8054    1.7070 H   0  0  0  0  0  0  0  0  0  0  0  0
    7.3472   -0.5793    2.3308 H   0  0  0  0  0  0  0  0  0  0  0  0
    5.9473    2.6030    0.8460 H   0  0  0  0  0  0  0  0  0  0  0  0
    7.1533    1.6964    3.3155 H   0  0  0  0  0  0  0  0  0  0  0  0
    8.4038    1.5911    2.0132 H   0  0  0  0  0  0  0  0  0  0  0  0
    3.0598   -0.0992   -1.6112 H   0  0  0  0  0  0  0  0  0  0  0  0
   -0.5095   -3.4010   -1.8516 H   0  0  0  0  0  0  0  0  0  0  0  0
   -0.9849   -2.6211   -3.4064 H   0  0  0  0  0  0  0  0  0  0  0  0
   -2.6570   -2.2075   -1.5853 H   0  0  0  0  0  0  0  0  0  0  0  0
   -1.3708   -1.5380   -0.5577 H   0  0  0  0  0  0  0  0  0  0  0  0
   -1.3700    0.7556   -0.3054 H   0  0  0  0  0  0  0  0  0  0  0  0
   -2.1317    1.8736   -1.4836 H   0  0  0  0  0  0  0  0  0  0  0  0
  1  2  1  0
  2  3  1  0
  2  4  1  0
  2  5  1  0
  5  6  1  0
  6  7  2  0
  7  8  1  0
  8  9  2  0
  8 10  1  0
 10 11  2  0
 10 12  1  0
 12 13  1  0
 13 14  1  0
 14 15  1  0
 15 16  1  0
 16 17  1  0
 17 18  2  0
 17 19  1  0
 19 20  2  0
 20 21  1  0
 21 22  2  0
 22 23  1  0
 23 24  2  0
 24 25  1  0
 25 26  1  0
 26 27  1  0
 27 28  1  0
 28 29  1  0
 28 30  1  0
 28 31  1  0
 25 32  2  0
 32 33  1  0
 33 34  2  0
 16 35  1  0
 35 36  1  0
 13 37  1  0
  9  5  1  0
 36 13  1  0
 37  7  1  0
 34 19  1  0
 33 22  1  0
  1 38  1  0
  1 39  1  0
  1 40  1  0
  3 41  1  0
  3 42  1  0
  3 43  1  0
  4 44  1  0
  4 45  1  0
  4 46  1  0
  6 47  1  0
 12 48  1  0
 14 49  1  0
 14 50  1  0
 15 51  1  0
 15 52  1  0
 20 53  1  0
 21 54  1  0
 23 55  1  0
 24 56  1  0
 26 57  1  0
 27 58  1  0
 27 59  1  0
 34 60  1  0
 35 61  1  0
 35 62  1  0
 36 63  1  0
 36 64  1  0
 37 65  1  0
 37 66  1  0
M  END
$$$$

     RDKit          3D

 55 58  0  0  0  0  0  0  0  0999 V2000
    0.5213   -5.3022   -0.0565 C   0  0  0  0  0  0  0  0  0  0  0  0
    1.0845   -3.9551   -0.4967 C   0  0  0  0  0  0  0  0  0  0  0  0
    1.1568   -3.0254    0.6296 N   0  0  0  0  0  0  0  0  0  0  0  0
    1.5904   -1.6693    0.4495 C   0  0  0  0  0  0  0  0  0  0  0  0
    2.3773   -1.3638   -0.6199 N   0  0  0  0  0  0  0  0  0  0  0  0
    2.8686   -0.1162   -0.8320 C   0  0  0  0  0  0  0  0  0  0  0  0
    3.6611    0.1448   -1.9534 C   0  0  0  0  0  0  0  0  0  0  0  0
    4.1675    1.4296   -2.1688 C   0  0  0  0  0  0  0  0  0  0  0  0
    3.8909    2.4666   -1.2686 C   0  0  0  0  0  0  0  0  0  0  0  0
    4.4189    3.7383   -1.5369 O   0  0  0  0  0  0  0  0  0  0  0  0
    4.2091    4.8851   -0.7194 C   0  0  0  0  0  0  0  0  0  0  0  0
    3.0974    2.2024   -0.1343 C   0  0  0  0  0  0  0  0  0  0  0  0
    2.5870    0.9136    0.0843 C   0  0  0  0  0  0  0  0  0  0  0  0
    1.7837    0.6303    1.1929 C   0  0  0  0  0  0  0  0  0  0  0  0
    1.2346   -0.6521    1.3698 C   0  0  0  0  0  0  0  0  0  0  0  0
    0.2639   -0.8888    2.5140 C   0  0  0  0  0  0  0  0  0  0  0  0
   -1.1010   -1.3598    2.0328 C   0  0  0  0  0  0  0  0  0  0  0  0
   -1.5477   -2.6345    2.4249 C   0  0  0  0  0  0  0  0  0  0  0  0
   -2.7216   -3.1332    1.9629 N   0  0  0  0  0  0  0  0  0  0  0  0
   -3.5192   -2.4302    1.1226 C   0  0  0  0  0  0  0  0  0  0  0  0
   -3.1576   -1.1383    0.7251 C   0  0  0  0  0  0  0  0  0  0  0  0
   -3.9916   -0.4045   -0.1299 C   0  0  0  0  0  0  0  0  0  0  0  0
   -3.6447    0.9011   -0.5193 C   0  0  0  0  0  0  0  0  0  0  0  0
   -4.4487    1.6594   -1.3856 O   0  0  0  0  0  0  0  0  0  0  0  0
   -5.6708    1.2057   -1.9587 C   0  0  0  0  0  0  0  0  0  0  0  0
   -2.4650    1.4785   -0.0326 C   0  0  0  0  0  0  0  0  0  0  0  0
   -2.1463    2.7849   -0.4390 O   0  0  0  0  0  0  0  0  0  0  0  0
   -0.9510    3.4741   -0.0835 C   0  0  0  0  0  0  0  0  0  0  0  0
   -1.6369    0.7476    0.8390 C   0  0  0  0  0  0  0  0  0  0  0  0
   -1.9485   -0.5769    1.2012 C   0  0  0  0  0  0  0  0  0  0  0  0
    0.4642   -5.9865   -0.9291 H   0  0  0  0  0  0  0  0  0  0  0  0
   -0.4989   -5.1698    0.3630 H   0  0  0  0  0  0  0  0  0  0  0  0
    1.1787   -5.7580    0.7141 H   0  0  0  0  0  0  0  0  0  0  0  0
    0.4245   -3.5291   -1.2831 H   0  0  0  0  0  0  0  0  0  0  0  0
    2.1000   -4.1047   -0.9225 H   0  0  0  0  0  0  0  0  0  0  0  0
    0.9292   -3.3671    1.5886 H   0  0  0  0  0  0  0  0  0  0  0  0
    3.8842   -0.6448   -2.6603 H   0  0  0  0  0  0  0  0  0  0  0  0
    4.7777    1.6224   -3.0421 H   0  0  0  0  0  0  0  0  0  0  0  0
    4.6183    4.7090    0.2978 H   0  0  0  0  0  0  0  0  0  0  0  0
    3.1250    5.1189   -0.6606 H   0  0  0  0  0  0  0  0  0  0  0  0
    4.7355    5.7518   -1.1688 H   0  0  0  0  0  0  0  0  0  0  0  0
    2.8702    2.9905    0.5721 H   0  0  0  0  0  0  0  0  0  0  0  0
    1.5553    1.4191    1.9008 H   0  0  0  0  0  0  0  0  0  0  0  0
    0.1217    0.0336    3.1175 H   0  0  0  0  0  0  0  0  0  0  0  0
    0.7220   -1.6270    3.2069 H   0  0  0  0  0  0  0  0  0  0  0  0
   -0.9521   -3.2465    3.0897 H   0  0  0  0  0  0  0  0  0  0  0  0
   -4.4429   -2.8779    0.7772 H   0  0  0  0  0  0  0  0  0  0  0  0
   -4.9080   -0.8547   -0.4894 H   0  0  0  0  0  0  0  0  0  0  0  0
   -5.4887    0.3062   -2.5840 H   0  0  0  0  0  0  0  0  0  0  0  0
   -6.0884    2.0067   -2.6024 H   0  0  0  0  0  0  0  0  0  0  0  0
   -6.4051    0.9741   -1.1585 H   0  0  0  0  0  0  0  0  0  0  0  0
   -0.0630    2.9045   -0.4316 H   0  0  0  0  0  0  0  0  0  0  0  0
   -0.9055    3.6192    1.0164 H   0  0  0  0  0  0  0  0  0  0  0  0
   -0.9476    4.4697   -0.5722 H   0  0  0  0  0  0  0  0  0  0  0  0
   -0.7684    1.2284    1.2483 H   0  0  0  0  0  0  0  0  0  0  0  0
  1  2  1  0
  2  3  1  0
  3  4  1  0
  4  5  2  0
  5  6  1  0
  6  7  2  0
  7  8  1  0
  8  9  2  0
  9 10  1  0
 10 11  1  0
  9 12  1  0
 12 13  2  0
 13 14  1  0
 14 15  2  0
 15 16  1  0
 16 17  1  0
 17 18  2  0
 18 19  1  0
 19 20  2  0
 20 21  1  0
 21 22  2  0
 22 23  1  0
 23 24  1  0
 24 25  1  0
 23 26  2  0
 26 27  1  0
 27 28  1  0
 26 29  1  0
 29 30  2  0
 15  4  1  0
 30 17  1  0
 13  6  1  0
 30 21  1  0
  1 31  1  0
  1 32  1  0
  1 33  1  0
  2 34  1  0
  2 35  1  0
  3 36  1  0
  7 37  1  0
  8 38  1  0
 11 39  1  0
 11 40  1  0
 11 41  1  0
 12 42  1  0
 14 43  1  0
 16 44  1  0
 16 45  1  0
 18 46  1  0
 20 47  1  0
 22 48  1  0
 25 49  1  0
 25 50  1  0
 25 51  1  0
 28 52  1  0
 28 53  1  0
 28 54  1  0
 29 55  1  0
M  END
$$$$

     RDKit          3D

 74 78  0  0  0  0  0  0  0  0999 V2000
   -1.8722    4.0532    4.9487 C   0  0  0  0  0  0  0  0  0  0  0  0
   -2.4684    2.6527    4.8528 C   0  0  0  0  0  0  0  0  0  0  0  0
   -2.5128    2.1969    3.4646 N   0  0  0  0  0  0  0  0  0  0  0  0
   -3.0051    0.8966    3.1191 C   0  0  0  0  0  0  0  0  0  0  0  0
   -3.3935    0.1135    4.0277 O   0  0  0  0  0  0  0  0  0  0  0  0
   -3.0680    0.5056    1.7383 N   0  0  0  0  0  0  0  0  0  0  0  0
   -3.4403   -0.8039    1.2738 C   0  0  0  0  0  0  0  0  0  0  0  0
   -3.5980   -2.1947    2.2316 S   0  0  0  0  0  0  0  0  0  0  0  0
   -3.9815   -3.2132    0.9538 C   0  0  0  0  0  0  0  0  0  0  0  0
   -4.2563   -4.5776    0.9969 C   0  0  0  0  0  0  0  0  0  0  0  0
   -4.5494   -5.2339   -0.2079 C   0  0  0  0  0  0  0  0  0  0  0  0
   -4.5619   -4.5204   -1.4216 C   0  0  0  0  0  0  0  0  0  0  0  0
   -4.2824   -3.1440   -1.4413 C   0  0  0  0  0  0  0  0  0  0  0  0
   -3.9881   -2.4954   -0.2349 C   0  0  0  0  0  0  0  0  0  0  0  0
   -3.6766   -1.1358   -0.0645 C   0  0  0  0  0  0  0  0  0  0  0  0
   -3.6047   -0.1664   -1.1707 C   0  0  0  0  0  0  0  0  0  0  0  0
   -4.6197    0.5379   -1.4155 O   0  0  0  0  0  0  0  0  0  0  0  0
   -2.4071   -0.0269   -1.9655 N   0  0  0  0  0  0  0  0  0  0  0  0
   -2.3392    0.9668   -3.0489 C   0  0  0  0  0  0  0  0  0  0  0  0
   -0.9741    1.6713   -3.0386 C   0  0  0  0  0  0  0  0  0  0  0  0
    0.2577    0.7123   -2.9523 C   0  0  0  0  0  0  0  0  0  0  0  0
    1.1628    1.1739   -1.8502 N   0  0  0  0  0  0  0  0  0  0  0  0
    1.9021    2.3807   -2.2870 C   0  0  0  0  0  0  0  0  0  0  0  0
    2.5354    3.1047   -1.0945 C   0  0  0  0  0  0  0  0  0  0  0  0
    2.8618    2.1687    0.0779 C   0  0  0  0  0  0  0  0  0  0  0  0
    3.1574    0.7081   -0.3385 C   0  0  0  0  0  0  0  0  0  0  0  0
    2.1365    0.1533   -1.3878 C   0  0  0  0  0  0  0  0  0  0  0  0
    3.1500   -0.1565    0.9068 C   0  0  0  0  0  0  0  0  0  0  0  0
    2.1442   -0.3252    1.6478 O   0  0  0  0  0  0  0  0  0  0  0  0
    4.4050   -0.7764    1.1568 N   0  0  0  0  0  0  0  0  0  0  0  0
    4.6376   -1.9291    2.0236 C   0  0  0  0  0  0  0  0  0  0  0  0
    4.1603   -3.2081    1.3475 C   0  0  0  0  0  0  0  0  0  0  0  0
    5.2153   -0.3626    0.0751 C   0  0  0  0  0  0  0  0  0  0  0  0
    6.3884   -0.7827   -0.1084 O   0  0  0  0  0  0  0  0  0  0  0  0
    4.5517    0.5437   -0.8044 N   0  0  0  0  0  0  0  0  0  0  0  0
    5.1607    1.1116   -2.0090 C   0  0  0  0  0  0  0  0  0  0  0  0
   -0.2096   -0.7667   -2.8399 C   0  0  0  0  0  0  0  0  0  0  0  0
   -1.2726   -0.9406   -1.7533 C   0  0  0  0  0  0  0  0  0  0  0  0
   -0.8239    4.0485    4.5789 H   0  0  0  0  0  0  0  0  0  0  0  0
   -2.4709    4.7679    4.3440 H   0  0  0  0  0  0  0  0  0  0  0  0
   -1.8768    4.3876    6.0076 H   0  0  0  0  0  0  0  0  0  0  0  0
   -1.8495    1.9531    5.4543 H   0  0  0  0  0  0  0  0  0  0  0  0
   -3.4994    2.6666    5.2694 H   0  0  0  0  0  0  0  0  0  0  0  0
   -2.1786    2.8241    2.6969 H   0  0  0  0  0  0  0  0  0  0  0  0
   -2.8519    1.2350    1.0239 H   0  0  0  0  0  0  0  0  0  0  0  0
   -4.2464   -5.1180    1.9347 H   0  0  0  0  0  0  0  0  0  0  0  0
   -4.7665   -6.2935   -0.2042 H   0  0  0  0  0  0  0  0  0  0  0  0
   -4.7893   -5.0350   -2.3461 H   0  0  0  0  0  0  0  0  0  0  0  0
   -4.2929   -2.6026   -2.3788 H   0  0  0  0  0  0  0  0  0  0  0  0
   -3.1296    1.7401   -2.9409 H   0  0  0  0  0  0  0  0  0  0  0  0
   -2.4993    0.4609   -4.0252 H   0  0  0  0  0  0  0  0  0  0  0  0
   -0.8927    2.3028   -3.9511 H   0  0  0  0  0  0  0  0  0  0  0  0
   -0.9747    2.3640   -2.1667 H   0  0  0  0  0  0  0  0  0  0  0  0
    0.8060    0.7703   -3.9218 H   0  0  0  0  0  0  0  0  0  0  0  0
    2.6865    2.1102   -3.0273 H   0  0  0  0  0  0  0  0  0  0  0  0
    1.2331    3.1053   -2.7990 H   0  0  0  0  0  0  0  0  0  0  0  0
    3.4500    3.6373   -1.4290 H   0  0  0  0  0  0  0  0  0  0  0  0
    1.8342    3.8891   -0.7330 H   0  0  0  0  0  0  0  0  0  0  0  0
    1.9788    2.1740    0.7566 H   0  0  0  0  0  0  0  0  0  0  0  0
    3.7160    2.5828    0.6581 H   0  0  0  0  0  0  0  0  0  0  0  0
    2.6710   -0.2867   -2.2579 H   0  0  0  0  0  0  0  0  0  0  0  0
    1.5768   -0.6783   -0.9121 H   0  0  0  0  0  0  0  0  0  0  0  0
    5.7213   -2.0113    2.2537 H   0  0  0  0  0  0  0  0  0  0  0  0
    4.0946   -1.7889    2.9823 H   0  0  0  0  0  0  0  0  0  0  0  0
    3.0749   -3.1398    1.1295 H   0  0  0  0  0  0  0  0  0  0  0  0
    4.7127   -3.3704    0.3986 H   0  0  0  0  0  0  0  0  0  0  0  0
    4.3385   -4.0735    2.0184 H   0  0  0  0  0  0  0  0  0  0  0  0
    5.1213    2.2162   -1.9733 H   0  0  0  0  0  0  0  0  0  0  0  0
    6.2298    0.8213   -2.0840 H   0  0  0  0  0  0  0  0  0  0  0  0
    4.6412    0.7414   -2.9150 H   0  0  0  0  0  0  0  0  0  0  0  0
    0.6236   -1.4834   -2.7003 H   0  0  0  0  0  0  0  0  0  0  0  0
   -0.6594   -1.0661   -3.8118 H   0  0  0  0  0  0  0  0  0  0  0  0
   -1.6259   -1.9928   -1.7856 H   0  0  0  0  0  0  0  0  0  0  0  0
   -0.8276   -0.7496   -0.7536 H   0  0  0  0  0  0  0  0  0  0  0  0
  1  2  1  0
  2  3  1  0
  3  4  1  0
  4  5  2  0
  4  6  1  0
  6  7  1  0
  7  8  1  0
  8  9  1  0
  9 10  2  0
 10 11  1  0
 11 12  2  0
 12 13  1  0
 13 14  2  0
 14 15  1  0
 15 16  1  0
 16 17  2  0
 16 18  1  0
 18 19  1  0
 19 20  1  0
 20 21  1  0
 21 22  1  0
 22 23  1  0
 23 24  1  0
 24 25  1  0
 25 26  1  0
 26 27  1  0
 26 28  1  0
 28 29  2  0
 28 30  1  0
 30 31  1  0
 31 32  1  0
 30 33  1  0
 33 34  2  0
 33 35  1  0
 35 36  1  0
 21 37  1  0
 37 38  1  0
 15  7  2  0
 38 18  1  0
 14  9  1  0
 27 22  1  0
 35 26  1  0
  1 39  1  0
  1 40  1  0
  1 41  1  0
  2 42  1  0
  2 43  1  0
  3 44  1  0
  6 45  1  0
 10 46  1  0
 11 47  1  0
 12 48  1  0
 13 49  1  0
 19 50  1  0
 19 51  1  0
 20 52  1  0
 20 53  1  0
 21 54  1  0
 23 55  1  0
 23 56  1  0
 24 57  1  0
 24 58  1  0
 25 59  1  0
 25 60  1  0
 27 61  1  0
 27 62  1  0
 31 63  1  0
 31 64  1  0
 32 65  1  0
 32 66  1  0
 32 67  1  0
 36 68  1  0
 36 69  1  0
 36 70  1  0
 37 71  1  0
 37 72  1  0
 38 73  1  0
 38 74  1  0
M  END
$$$$

     RDKit          3D

 52 56  0  0  0  0  0  0  0  0999 V2000
    2.6076   -3.9131   -1.7776 C   0  0  0  0  0  0  0  0  0  0  0  0
    3.5367   -2.9192   -1.2504 N   0  0  0  0  0  0  0  0  0  0  0  0
    4.8426   -2.9627   -1.4612 N   0  0  0  0  0  0  0  0  0  0  0  0
    5.3944   -1.8875   -0.8661 C   0  0  0  0  0  0  0  0  0  0  0  0
    4.4034   -1.1344   -0.2582 C   0  0  0  0  0  0  0  0  0  0  0  0
    4.5930    0.0546    0.5975 C   0  0  0  0  0  0  0  0  0  0  0  0
    3.7321    0.3381    1.4719 O   0  0  0  0  0  0  0  0  0  0  0  0
    5.7352    0.9008    0.4529 N   0  0  0  0  0  0  0  0  0  0  0  0
    6.2043    2.1622    1.0539 C   0  0  0  0  0  0  0  0  0  0  0  0
    7.3985    2.3259    0.1741 C   0  0  0  0  0  0  0  0  0  0  0  0
    6.9164    1.0440   -0.4191 C   0  0  0  0  0  0  0  0  0  0  0  0
    3.2267   -1.8221   -0.5264 C   0  0  0  0  0  0  0  0  0  0  0  0
    1.8553   -1.4285   -0.1463 C   0  0  0  0  0  0  0  0  0  0  0  0
    1.0739   -2.3014    0.3171 O   0  0  0  0  0  0  0  0  0  0  0  0
    1.4209   -0.0666   -0.3024 N   0  0  0  0  0  0  0  0  0  0  0  0
    0.1053    0.4034    0.0339 C   0  0  0  0  0  0  0  0  0  0  0  0
   -0.0518    1.6965    0.5842 C   0  0  0  0  0  0  0  0  0  0  0  0
   -1.3274    2.1899    0.9039 C   0  0  0  0  0  0  0  0  0  0  0  0
   -2.4174    1.3669    0.6413 C   0  0  0  0  0  0  0  0  0  0  0  0
   -3.7125    1.6527    0.8634 N   0  0  0  0  0  0  0  0  0  0  0  0
   -4.3132    0.5190    0.4100 C   0  0  0  0  0  0  0  0  0  0  0  0
   -5.7381    0.3138    0.4379 N   0  0  0  0  0  0  0  0  0  0  0  0
   -6.5951    1.2843    1.1293 C   0  0  0  0  0  0  0  0  0  0  0  0
   -8.0313    1.2002    0.6022 C   0  0  0  0  0  0  0  0  0  0  0  0
   -8.4943   -0.1356    0.6126 O   0  0  0  0  0  0  0  0  0  0  0  0
   -7.7456   -0.9002   -0.3111 C   0  0  0  0  0  0  0  0  0  0  0  0
   -6.2846   -1.0138    0.1331 C   0  0  0  0  0  0  0  0  0  0  0  0
   -3.4373   -0.4023   -0.0623 N   0  0  0  0  0  0  0  0  0  0  0  0
   -2.2555    0.1572    0.0973 N   0  0  0  0  0  0  0  0  0  0  0  0
   -1.0482   -0.3675   -0.2278 C   0  0  0  0  0  0  0  0  0  0  0  0
    2.1010   -4.4364   -0.9401 H   0  0  0  0  0  0  0  0  0  0  0  0
    3.1538   -4.6650   -2.3862 H   0  0  0  0  0  0  0  0  0  0  0  0
    1.8495   -3.4164   -2.4194 H   0  0  0  0  0  0  0  0  0  0  0  0
    6.4567   -1.6976   -0.8467 H   0  0  0  0  0  0  0  0  0  0  0  0
    6.4755    2.0162    2.1234 H   0  0  0  0  0  0  0  0  0  0  0  0
    5.4554    2.9725    0.9111 H   0  0  0  0  0  0  0  0  0  0  0  0
    7.3153    3.1892   -0.5215 H   0  0  0  0  0  0  0  0  0  0  0  0
    8.3626    2.2243    0.7185 H   0  0  0  0  0  0  0  0  0  0  0  0
    7.6402    0.2147   -0.2581 H   0  0  0  0  0  0  0  0  0  0  0  0
    6.6144    1.1515   -1.4847 H   0  0  0  0  0  0  0  0  0  0  0  0
    2.1208    0.6442   -0.6130 H   0  0  0  0  0  0  0  0  0  0  0  0
    0.8172    2.3139    0.7723 H   0  0  0  0  0  0  0  0  0  0  0  0
   -1.4562    3.1753    1.3326 H   0  0  0  0  0  0  0  0  0  0  0  0
   -6.5845    1.0670    2.2195 H   0  0  0  0  0  0  0  0  0  0  0  0
   -6.2230    2.3196    0.9690 H   0  0  0  0  0  0  0  0  0  0  0  0
   -8.0988    1.6435   -0.4180 H   0  0  0  0  0  0  0  0  0  0  0  0
   -8.6878    1.8062    1.2611 H   0  0  0  0  0  0  0  0  0  0  0  0
   -7.8090   -0.4700   -1.3370 H   0  0  0  0  0  0  0  0  0  0  0  0
   -8.1822   -1.9198   -0.3615 H   0  0  0  0  0  0  0  0  0  0  0  0
   -6.2190   -1.6525    1.0403 H   0  0  0  0  0  0  0  0  0  0  0  0
   -5.7074   -1.4965   -0.6852 H   0  0  0  0  0  0  0  0  0  0  0  0
   -0.9891   -1.3384   -0.7014 H   0  0  0  0  0  0  0  0  0  0  0  0
  1  2  1  0
  2  3  1  0
  3  4  2  0
  4  5  1  0
  5  6  1  0
  6  7  2  0
  6  8  1  0
  8  9  1  0
  9 10  1  0
 10 11  1  0
  5 12  2  0
 12 13  1  0
 13 14  2  0
 13 15  1  0
 15 16  1  0
 16 17  1  0
 17 18  2  0
 18 19  1  0
 19 20  2  0
 20 21  1  0
 21 22  1  0
 22 23  1  0
 23 24  1  0
 24 25  1  0
 25 26  1  0
 26 27  1  0
 21 28  2  0
 28 29  1  0
 29 30  1  0
 12  2  1  0
 30 16  2  0
 11  8  1  0
 29 19  1  0
 27 22  1  0
  1 31  1  0
  1 32  1  0
  1 33  1  0
  4 34  1  0
  9 35  1  0
  9 36  1  0
 10 37  1  0
 10 38  1  0
 11 39  1  0
 11 40  1  0
 15 41  1  0
 17 42  1  0
 18 43  1  0
 23 44  1  0
 23 45  1  0
 24 46  1  0
 24 47  1  0
 26 48  1  0
 26 49  1  0
 27 50  1  0
 27 51  1  0
 30 52  1  0
M  END
$$$$

     RDKit          3D

 64 68  0  0  0  0  0  0  0  0999 V2000
   -5.8680    2.2572   -0.4817 C   0  0  0  0  0  0  0  0  0  0  0  0
   -5.0198    3.4916   -0.1829 C   0  0  0  0  0  0  0  0  0  0  0  0
   -3.8275    3.1826    0.7337 C   0  0  0  0  0  0  0  0  0  0  0  0
   -2.7641    2.3604    0.0249 C   0  0  0  0  0  0  0  0  0  0  0  0
   -1.9035    3.0309   -0.7915 N   0  0  0  0  0  0  0  0  0  0  0  0
   -0.8876    2.4207   -1.4523 C   0  0  0  0  0  0  0  0  0  0  0  0
   -0.1238    3.1173   -2.1753 O   0  0  0  0  0  0  0  0  0  0  0  0
   -0.6849    1.0345   -1.3295 C   0  0  0  0  0  0  0  0  0  0  0  0
    0.4621    0.3754   -2.0900 C   0  0  0  0  0  0  0  0  0  0  0  0
    1.6781    0.0195   -1.2434 C   0  0  0  0  0  0  0  0  0  0  0  0
    1.7775    0.4182    0.1079 C   0  0  0  0  0  0  0  0  0  0  0  0
    2.8874    0.0626    0.8772 C   0  0  0  0  0  0  0  0  0  0  0  0
    2.9874    0.4410    2.2338 C   0  0  0  0  0  0  0  0  0  0  0  0
    4.1236    0.0458    2.9346 C   0  0  0  0  0  0  0  0  0  0  0  0
    5.1145   -0.6782    2.3532 C   0  0  0  0  0  0  0  0  0  0  0  0
    5.0576   -1.0714    1.0190 C   0  0  0  0  0  0  0  0  0  0  0  0
    3.9253   -0.6941    0.2721 C   0  0  0  0  0  0  0  0  0  0  0  0
    3.8251   -1.0470   -1.0325 N   0  0  0  0  0  0  0  0  0  0  0  0
    2.7550   -0.7155   -1.8083 C   0  0  0  0  0  0  0  0  0  0  0  0
    2.7487   -1.1191   -3.1926 N   0  0  0  0  0  0  0  0  0  0  0  0
    3.8735   -1.8214   -3.8096 C   0  0  0  0  0  0  0  0  0  0  0  0
    5.0219   -0.8570   -4.0866 C   0  0  0  0  0  0  0  0  0  0  0  0
    6.1090   -0.9241    3.2799 O   0  0  0  0  0  0  0  0  0  0  0  0
    5.7192   -0.3174    4.5200 C   0  0  0  0  0  0  0  0  0  0  0  0
    4.4470    0.2901    4.2553 O   0  0  0  0  0  0  0  0  0  0  0  0
   -1.5481    0.2947   -0.4765 C   0  0  0  0  0  0  0  0  0  0  0  0
   -1.3631   -1.0897   -0.2665 C   0  0  0  0  0  0  0  0  0  0  0  0
   -2.2272   -1.8246    0.5597 C   0  0  0  0  0  0  0  0  0  0  0  0
   -2.0533   -3.2000    0.7861 O   0  0  0  0  0  0  0  0  0  0  0  0
   -1.0023   -3.9870    0.2342 C   0  0  0  0  0  0  0  0  0  0  0  0
   -3.2997   -1.1842    1.1819 C   0  0  0  0  0  0  0  0  0  0  0  0
   -4.1595   -1.9570    1.9804 O   0  0  0  0  0  0  0  0  0  0  0  0
   -5.2981   -1.4531    2.6717 C   0  0  0  0  0  0  0  0  0  0  0  0
   -3.4890    0.1954    0.9990 C   0  0  0  0  0  0  0  0  0  0  0  0
   -2.6122    0.9567    0.1947 C   0  0  0  0  0  0  0  0  0  0  0  0
   -6.2567    1.8177    0.4611 H   0  0  0  0  0  0  0  0  0  0  0  0
   -6.7317    2.5478   -1.1161 H   0  0  0  0  0  0  0  0  0  0  0  0
   -5.2727    1.4970   -1.0295 H   0  0  0  0  0  0  0  0  0  0  0  0
   -4.6609    3.9327   -1.1383 H   0  0  0  0  0  0  0  0  0  0  0  0
   -5.6642    4.2479    0.3154 H   0  0  0  0  0  0  0  0  0  0  0  0
   -3.3700    4.1502    1.0348 H   0  0  0  0  0  0  0  0  0  0  0  0
   -4.1673    2.7420    1.6902 H   0  0  0  0  0  0  0  0  0  0  0  0
   -2.0178    4.0637   -0.9141 H   0  0  0  0  0  0  0  0  0  0  0  0
    0.8029    1.0220   -2.9260 H   0  0  0  0  0  0  0  0  0  0  0  0
    0.0644   -0.5387   -2.5782 H   0  0  0  0  0  0  0  0  0  0  0  0
    0.9970    1.0048    0.5740 H   0  0  0  0  0  0  0  0  0  0  0  0
    2.2126    1.0175    2.7241 H   0  0  0  0  0  0  0  0  0  0  0  0
    5.8602   -1.6470    0.5758 H   0  0  0  0  0  0  0  0  0  0  0  0
    1.9181   -0.9453   -3.7991 H   0  0  0  0  0  0  0  0  0  0  0  0
    3.5443   -2.2663   -4.7738 H   0  0  0  0  0  0  0  0  0  0  0  0
    4.2159   -2.6502   -3.1530 H   0  0  0  0  0  0  0  0  0  0  0  0
    5.8465   -1.3972   -4.5976 H   0  0  0  0  0  0  0  0  0  0  0  0
    4.6743   -0.0307   -4.7426 H   0  0  0  0  0  0  0  0  0  0  0  0
    5.4119   -0.4299   -3.1392 H   0  0  0  0  0  0  0  0  0  0  0  0
    5.6175   -1.0905    5.3103 H   0  0  0  0  0  0  0  0  0  0  0  0
    6.4581    0.4557    4.8182 H   0  0  0  0  0  0  0  0  0  0  0  0
   -0.5402   -1.6079   -0.7308 H   0  0  0  0  0  0  0  0  0  0  0  0
   -1.1086   -5.0327    0.5879 H   0  0  0  0  0  0  0  0  0  0  0  0
   -0.0173   -3.5977    0.5684 H   0  0  0  0  0  0  0  0  0  0  0  0
   -1.0615   -3.9800   -0.8745 H   0  0  0  0  0  0  0  0  0  0  0  0
   -4.9879   -0.6809    3.4070 H   0  0  0  0  0  0  0  0  0  0  0  0
   -5.7881   -2.2852    3.2173 H   0  0  0  0  0  0  0  0  0  0  0  0
   -6.0254   -1.0255    1.9494 H   0  0  0  0  0  0  0  0  0  0  0  0
   -4.3344    0.6527    1.4791 H   0  0  0  0  0  0  0  0  0  0  0  0
  1  2  1  0
  2  3  1  0
  3  4  1  0
  4  5  1  0
  5  6  1  0
  6  7  2  0
  6  8  1  0
  8  9  1  0
  9 10  1  0
 10 11  2  0
 11 12  1  0
 12 13  2  0
 13 14  1  0
 14 15  2  0
 15 16  1  0
 16 17  2  0
 17 18  1  0
 18 19  2  0
 19 20  1  0
 20 21  1  0
 21 22  1  0
 15 23  1  0
 23 24  1  0
 24 25  1  0
  8 26  2  0
 26 27  1  0
 27 28  2  0
 28 29  1  0
 29 30  1  0
 28 31  1  0
 31 32  1  0
 32 33  1  0
 31 34  2  0
 34 35  1  0
 35  4  2  0
 19 10  1  0
 35 26  1  0
 17 12  1  0
 25 14  1  0
  1 36  1  0
  1 37  1  0
  1 38  1  0
  2 39  1  0
  2 40  1  0
  3 41  1  0
  3 42  1  0
  5 43  1  0
  9 44  1  0
  9 45  1  0
 11 46  1  0
 13 47  1  0
 16 48  1  0
 20 49  1  0
 21 50  1  0
 21 51  1  0
 22 52  1  0
 22 53  1  0
 22 54  1  0
 24 55  1  0
 24 56  1  0
 27 57  1  0
 30 58  1  0
 30 59  1  0
 30 60  1  0
 33 61  1  0
 33 62  1  0
 33 63  1  0
 34 64  1  0
M  END
$$$$

     RDKit          3D

 66 70  0  0  0  0  0  0  0  0999 V2000
   -7.9771    1.3530   -2.6226 C   0  0  0  0  0  0  0  0  0  0  0  0
   -7.2137    1.5078   -1.2979 C   0  0  0  0  0  0  0  0  0  0  0  0
   -8.1460    1.1113   -0.1364 C   0  0  0  0  0  0  0  0  0  0  0  0
   -6.7611    2.9736   -1.1540 C   0  0  0  0  0  0  0  0  0  0  0  0
   -6.0782    0.6304   -1.3577 O   0  0  0  0  0  0  0  0  0  0  0  0
   -5.1153    0.4486   -0.3531 C   0  0  0  0  0  0  0  0  0  0  0  0
   -5.1769    1.0923    0.7291 O   0  0  0  0  0  0  0  0  0  0  0  0
   -4.0492   -0.4823   -0.5747 N   0  0  0  0  0  0  0  0  0  0  0  0
   -3.0284   -0.7661    0.4394 C   0  0  1  0  0  0  0  0  0  0  0  0
   -3.6140   -1.6646    1.5481 C   0  0  0  0  0  0  0  0  0  0  0  0
   -2.5628   -2.1416    2.5797 C   0  0  0  0  0  0  0  0  0  0  0  0
   -1.1316   -1.7022    2.2445 C   0  0  0  0  0  0  0  0  0  0  0  0
   -0.8615   -1.9173    0.8189 N   0  0  0  0  0  0  0  0  0  0  0  0
    0.2422   -2.7362    0.4179 C   0  0  0  0  0  0  0  0  0  0  0  0
    0.0246   -4.0456    0.1250 N   0  0  0  0  0  0  0  0  0  0  0  0
    1.0356   -4.8635   -0.2646 C   0  0  0  0  0  0  0  0  0  0  0  0
    2.3265   -4.3512   -0.3751 C   0  0  0  0  0  0  0  0  0  0  0  0
    2.5516   -3.0442   -0.0867 N   0  0  0  0  0  0  0  0  0  0  0  0
    1.5483   -2.2145    0.3194 C   0  0  0  0  0  0  0  0  0  0  0  0
    1.8412   -0.7526    0.5965 C   0  0  0  0  0  0  0  0  0  0  0  0
    3.1595   -0.4912    1.2659 C   0  0  0  0  0  0  0  0  0  0  0  0
    3.7821    0.1932    0.1182 N   0  0  0  0  0  0  0  0  0  0  0  0
    5.0426    0.7850   -0.1929 C   0  0  0  0  0  0  0  0  0  0  0  0
    5.2539    1.3788   -1.4433 C   0  0  0  0  0  0  0  0  0  0  0  0
    6.4958    1.9491   -1.7333 C   0  0  0  0  0  0  0  0  0  0  0  0
    7.5143    1.9273   -0.7724 C   0  0  0  0  0  0  0  0  0  0  0  0
    8.7744    2.4880   -1.0314 C   0  0  0  0  0  0  0  0  0  0  0  0
    9.7749    2.4406   -0.0542 C   0  0  0  0  0  0  0  0  0  0  0  0
    9.5245    1.8333    1.1815 C   0  0  0  0  0  0  0  0  0  0  0  0
    8.2684    1.2767    1.4496 C   0  0  0  0  0  0  0  0  0  0  0  0
    7.2611    1.3190    0.4779 C   0  0  0  0  0  0  0  0  0  0  0  0
    6.0422    0.7699    0.7307 N   0  0  0  0  0  0  0  0  0  0  0  0
    2.4884   -0.0401   -0.5526 C   0  0  0  0  0  0  0  0  0  0  0  0
   -1.8064   -1.4508   -0.2021 C   0  0  0  0  0  0  0  0  0  0  0  0
   -8.8745    2.0086   -2.6457 H   0  0  0  0  0  0  0  0  0  0  0  0
   -8.3070    0.3010   -2.7566 H   0  0  0  0  0  0  0  0  0  0  0  0
   -7.3213    1.6191   -3.4796 H   0  0  0  0  0  0  0  0  0  0  0  0
   -7.6708    1.3008    0.8479 H   0  0  0  0  0  0  0  0  0  0  0  0
   -9.0893    1.6999   -0.1719 H   0  0  0  0  0  0  0  0  0  0  0  0
   -8.3993    0.0306   -0.2011 H   0  0  0  0  0  0  0  0  0  0  0  0
   -6.0358    3.2300   -1.9557 H   0  0  0  0  0  0  0  0  0  0  0  0
   -7.6313    3.6605   -1.2305 H   0  0  0  0  0  0  0  0  0  0  0  0
   -6.2769    3.1541   -0.1735 H   0  0  0  0  0  0  0  0  0  0  0  0
   -4.0006   -0.9556   -1.5066 H   0  0  0  0  0  0  0  0  0  0  0  0
   -2.6891    0.1953    0.8874 H   0  0  0  0  0  0  0  0  0  0  0  0
   -4.4222   -1.1168    2.0790 H   0  0  0  0  0  0  0  0  0  0  0  0
   -4.0832   -2.5564    1.0748 H   0  0  0  0  0  0  0  0  0  0  0  0
   -2.5885   -3.2519    2.6333 H   0  0  0  0  0  0  0  0  0  0  0  0
   -2.8258   -1.7586    3.5895 H   0  0  0  0  0  0  0  0  0  0  0  0
   -0.4108   -2.2663    2.8771 H   0  0  0  0  0  0  0  0  0  0  0  0
   -1.0110   -0.6225    2.4810 H   0  0  0  0  0  0  0  0  0  0  0  0
    0.8364   -5.9028   -0.4916 H   0  0  0  0  0  0  0  0  0  0  0  0
    3.1442   -4.9849   -0.6917 H   0  0  0  0  0  0  0  0  0  0  0  0
    1.0126   -0.1674    1.0492 H   0  0  0  0  0  0  0  0  0  0  0  0
    3.0636    0.2038    2.1299 H   0  0  0  0  0  0  0  0  0  0  0  0
    3.7316   -1.4045    1.5424 H   0  0  0  0  0  0  0  0  0  0  0  0
    4.4643    1.3972   -2.1853 H   0  0  0  0  0  0  0  0  0  0  0  0
    6.6583    2.4065   -2.7022 H   0  0  0  0  0  0  0  0  0  0  0  0
    8.9861    2.9543   -1.9856 H   0  0  0  0  0  0  0  0  0  0  0  0
   10.7487    2.8688   -0.2561 H   0  0  0  0  0  0  0  0  0  0  0  0
   10.3067    1.7903    1.9312 H   0  0  0  0  0  0  0  0  0  0  0  0
    8.0844    0.8062    2.4080 H   0  0  0  0  0  0  0  0  0  0  0  0
    2.6223   -0.6646   -1.4648 H   0  0  0  0  0  0  0  0  0  0  0  0
    1.9872    0.9265   -0.7856 H   0  0  0  0  0  0  0  0  0  0  0  0
   -2.1459   -2.3227   -0.8037 H   0  0  0  0  0  0  0  0  0  0  0  0
   -1.2932   -0.7353   -0.8804 H   0  0  0  0  0  0  0  0  0  0  0  0
  1  2  1  0
  2  3  1  0
  2  4  1  0
  2  5  1  0
  5  6  1  0
  6  7  2  0
  6  8  1  0
  8  9  1  0
  9 10  1  0
 10 11  1  0
 11 12  1  0
 12 13  1  0
 13 14  1  0
 14 15  2  0
 15 16  1  0
 16 17  2  0
 17 18  1  0
 18 19  2  0
 19 20  1  0
 20 21  1  0
 21 22  1  0
 22 23  1  0
 23 24  2  0
 24 25  1  0
 25 26  2  0
 26 27  1  0
 27 28  2  0
 28 29  1  0
 29 30  2  0
 30 31  1  0
 31 32  2  0
 22 33  1  0
 13 34  1  0
 34  9  1  0
 19 14  1  0
 33 20  1  0
 32 23  1  0
 31 26  1  0
  1 35  1  0
  1 36  1  0
  1 37  1  0
  3 38  1  0
  3 39  1  0
  3 40  1  0
  4 41  1  0
  4 42  1  0
  4 43  1  0
  8 44  1  0
  9 45  1  1
 10 46  1  0
 10 47  1  0
 11 48  1  0
 11 49  1  0
 12 50  1  0
 12 51  1  0
 16 52  1  0
 17 53  1  0
 20 54  1  0
 21 55  1  0
 21 56  1  0
 24 57  1  0
 25 58  1  0
 27 59  1  0
 28 60  1  0
 29 61  1  0
 30 62  1  0
 33 63  1  0
 33 64  1  0
 34 65  1  0
 34 66  1  0
M  END
$$$$

     RDKit          3D

 58 62  0  0  0  0  0  0  0  0999 V2000
    9.0860   -1.3214    0.6723 C   0  0  0  0  0  0  0  0  0  0  0  0
    7.7945   -1.8894    0.6662 O   0  0  0  0  0  0  0  0  0  0  0  0
    7.1908   -1.7268   -0.6066 C   0  0  0  0  0  0  0  0  0  0  0  0
    6.2032   -2.8764   -0.8370 C   0  0  0  0  0  0  0  0  0  0  0  0
    4.8312   -2.3435   -0.4466 C   0  0  0  0  0  0  0  0  0  0  0  0
    4.9689   -0.9005   -0.4359 N   0  0  0  0  0  0  0  0  0  0  0  0
    3.8701   -0.0052   -0.2264 C   0  0  0  0  0  0  0  0  0  0  0  0
    4.0048    1.3477   -0.2155 N   0  0  0  0  0  0  0  0  0  0  0  0
    2.7346    1.7288    0.0095 C   0  0  0  0  0  0  0  0  0  0  0  0
    2.2630    3.0336    0.1066 C   0  0  0  0  0  0  0  0  0  0  0  0
    0.8883    3.2101    0.3340 C   0  0  0  0  0  0  0  0  0  0  0  0
    0.0301    2.0946    0.4736 C   0  0  0  0  0  0  0  0  0  0  0  0
   -1.3765    2.3055    0.6785 N   0  0  0  0  0  0  0  0  0  0  0  0
   -2.2109    1.4535    1.4802 C   0  0  0  0  0  0  0  0  0  0  0  0
   -1.7076    0.5162    2.1551 O   0  0  0  0  0  0  0  0  0  0  0  0
   -3.6654    1.6902    1.5496 C   0  0  0  0  0  0  0  0  0  0  0  0
   -4.6675    0.7641    1.3013 C   0  0  0  0  0  0  0  0  0  0  0  0
   -4.5277   -0.6621    0.9417 C   0  0  0  0  0  0  0  0  0  0  0  0
   -3.6246   -1.3458    1.4936 O   0  0  0  0  0  0  0  0  0  0  0  0
   -5.3947   -1.2874   -0.0225 N   0  0  0  0  0  0  0  0  0  0  0  0
   -6.1616   -0.5639   -1.0247 C   0  0  0  0  0  0  0  0  0  0  0  0
   -6.5336   -1.5969   -2.0795 C   0  0  0  0  0  0  0  0  0  0  0  0
   -6.3656   -2.9535   -1.4032 C   0  0  0  0  0  0  0  0  0  0  0  0
   -5.3894   -2.7216   -0.2586 C   0  0  0  0  0  0  0  0  0  0  0  0
   -5.8470    1.4702    1.4606 C   0  0  0  0  0  0  0  0  0  0  0  0
   -5.5660    2.7473    1.7841 N   0  0  0  0  0  0  0  0  0  0  0  0
   -4.2495    2.8740    1.8402 N   0  0  0  0  0  0  0  0  0  0  0  0
   -3.5876    4.1326    2.1693 C   0  0  0  0  0  0  0  0  0  0  0  0
    0.5750    0.7988    0.3436 C   0  0  0  0  0  0  0  0  0  0  0  0
    1.9079    0.6845    0.1235 N   0  0  0  0  0  0  0  0  0  0  0  0
    2.5988   -0.4275   -0.0237 N   0  0  0  0  0  0  0  0  0  0  0  0
    6.3363   -0.4555   -0.6271 C   0  0  0  0  0  0  0  0  0  0  0  0
    9.0657   -0.2532    0.3611 H   0  0  0  0  0  0  0  0  0  0  0  0
    9.7735   -1.9018    0.0185 H   0  0  0  0  0  0  0  0  0  0  0  0
    9.4869   -1.3639    1.7058 H   0  0  0  0  0  0  0  0  0  0  0  0
    7.9318   -1.7194   -1.4438 H   0  0  0  0  0  0  0  0  0  0  0  0
    6.4690   -3.7802   -0.2460 H   0  0  0  0  0  0  0  0  0  0  0  0
    6.1973   -3.1476   -1.9162 H   0  0  0  0  0  0  0  0  0  0  0  0
    4.0641   -2.6554   -1.1885 H   0  0  0  0  0  0  0  0  0  0  0  0
    4.5461   -2.6985    0.5674 H   0  0  0  0  0  0  0  0  0  0  0  0
    2.9281    3.8815    0.0058 H   0  0  0  0  0  0  0  0  0  0  0  0
    0.4890    4.2135    0.4107 H   0  0  0  0  0  0  0  0  0  0  0  0
   -1.8023    3.1597    0.2551 H   0  0  0  0  0  0  0  0  0  0  0  0
   -5.5529    0.2508   -1.4742 H   0  0  0  0  0  0  0  0  0  0  0  0
   -7.0827   -0.1479   -0.5673 H   0  0  0  0  0  0  0  0  0  0  0  0
   -7.5737   -1.4513   -2.4439 H   0  0  0  0  0  0  0  0  0  0  0  0
   -5.8307   -1.5223   -2.9383 H   0  0  0  0  0  0  0  0  0  0  0  0
   -7.3451   -3.2880   -0.9959 H   0  0  0  0  0  0  0  0  0  0  0  0
   -5.9844   -3.7174   -2.1151 H   0  0  0  0  0  0  0  0  0  0  0  0
   -5.7148   -3.2651    0.6547 H   0  0  0  0  0  0  0  0  0  0  0  0
   -4.3684   -3.0501   -0.5520 H   0  0  0  0  0  0  0  0  0  0  0  0
   -6.8507    1.0781    1.3775 H   0  0  0  0  0  0  0  0  0  0  0  0
   -4.2441    4.7445    2.8231 H   0  0  0  0  0  0  0  0  0  0  0  0
   -2.6374    3.9425    2.7114 H   0  0  0  0  0  0  0  0  0  0  0  0
   -3.3814    4.7008    1.2389 H   0  0  0  0  0  0  0  0  0  0  0  0
   -0.0451   -0.0869    0.3859 H   0  0  0  0  0  0  0  0  0  0  0  0
    6.4243    0.0567   -1.6097 H   0  0  0  0  0  0  0  0  0  0  0  0
    6.6293    0.2461    0.1842 H   0  0  0  0  0  0  0  0  0  0  0  0
  1  2  1  0
  2  3  1  0
  3  4  1  0
  4  5  1  0
  5  6  1  0
  6  7  1  0
  7  8  1  0
  8  9  2  0
  9 10  1  0
 10 11  2  0
 11 12  1  0
 12 13  1  0
 13 14  1  0
 14 15  2  0
 14 16  1  0
 16 17  2  0
 17 18  1  0
 18 19  2  0
 18 20  1  0
 20 21  1  0
 21 22  1  0
 22 23  1  0
 23 24  1  0
 17 25  1  0
 25 26  2  0
 26 27  1  0
 27 28  1  0
 12 29  2  0
 29 30  1  0
 30 31  1  0
  6 32  1  0
 32  3  1  0
 31  7  2  0
 30  9  1  0
 27 16  1  0
 24 20  1  0
  1 33  1  0
  1 34  1  0
  1 35  1  0
  3 36  1  0
  4 37  1  0
  4 38  1  0
  5 39  1  0
  5 40  1  0
 10 41  1  0
 11 42  1  0
 13 43  1  0
 21 44  1  0
 21 45  1  0
 22 46  1  0
 22 47  1  0
 23 48  1  0
 23 49  1  0
 24 50  1  0
 24 51  1  0
 25 52  1  0
 28 53  1  0
 28 54  1  0
 28 55  1  0
 29 56  1  0
 32 57  1  0
 32 58  1  0
M  END
$$$$

     RDKit          3D

 45 49  0  0  0  0  0  0  0  0999 V2000
   -3.3621    4.5636   -0.3561 C   0  0  0  0  0  0  0  0  0  0  0  0
   -3.0651    3.1915   -0.7521 N   0  0  0  0  0  0  0  0  0  0  0  0
   -3.9397    2.2023   -0.6496 N   0  0  0  0  0  0  0  0  0  0  0  0
   -3.3348    1.0693   -1.0567 C   0  0  0  0  0  0  0  0  0  0  0  0
   -2.0350    1.3540   -1.4317 C   0  0  0  0  0  0  0  0  0  0  0  0
   -1.0605    0.4107   -2.0018 C   0  0  0  0  0  0  0  0  0  0  0  0
   -0.2692    0.7958   -2.9027 O   0  0  0  0  0  0  0  0  0  0  0  0
   -0.9700   -0.9278   -1.5142 N   0  0  0  0  0  0  0  0  0  0  0  0
   -0.1086   -2.0993   -1.7505 C   0  0  0  0  0  0  0  0  0  0  0  0
   -0.6756   -2.9383   -0.6539 C   0  0  0  0  0  0  0  0  0  0  0  0
   -1.5479   -1.7472   -0.4336 C   0  0  0  0  0  0  0  0  0  0  0  0
   -1.8892    2.7168   -1.2189 C   0  0  0  0  0  0  0  0  0  0  0  0
   -0.6497    3.5160   -1.3660 C   0  0  0  0  0  0  0  0  0  0  0  0
   -0.7240    4.6852   -1.8275 O   0  0  0  0  0  0  0  0  0  0  0  0
    0.6397    2.9842   -1.0206 N   0  0  0  0  0  0  0  0  0  0  0  0
    0.8456    1.9522   -0.0421 C   0  0  0  0  0  0  0  0  0  0  0  0
    0.0383    1.8632    1.1197 C   0  0  0  0  0  0  0  0  0  0  0  0
    0.2060    0.8033    2.0252 C   0  0  0  0  0  0  0  0  0  0  0  0
    1.1913   -0.1347    1.7384 C   0  0  0  0  0  0  0  0  0  0  0  0
    1.4797   -1.2406    2.4466 N   0  0  0  0  0  0  0  0  0  0  0  0
    2.4855   -1.7757    1.7029 C   0  0  0  0  0  0  0  0  0  0  0  0
    3.1532   -3.0407    2.0339 C   0  0  0  0  0  0  0  0  0  0  0  0
    2.8411   -3.7964    3.1609 C   0  0  0  0  0  0  0  0  0  0  0  0
    3.8161   -5.1638    3.1397 S   0  0  0  0  0  0  0  0  0  0  0  0
    4.5923   -4.7413    1.7109 C   0  0  0  0  0  0  0  0  0  0  0  0
    4.1222   -3.5678    1.2364 N   0  0  0  0  0  0  0  0  0  0  0  0
    2.7918   -1.0410    0.6063 N   0  0  0  0  0  0  0  0  0  0  0  0
    1.9647   -0.0170    0.6550 N   0  0  0  0  0  0  0  0  0  0  0  0
    1.8508    0.9894   -0.2458 C   0  0  0  0  0  0  0  0  0  0  0  0
   -3.2781    5.2356   -1.2353 H   0  0  0  0  0  0  0  0  0  0  0  0
   -2.6512    4.8900    0.4314 H   0  0  0  0  0  0  0  0  0  0  0  0
   -4.3956    4.6328    0.0453 H   0  0  0  0  0  0  0  0  0  0  0  0
   -3.8232    0.1062   -1.1038 H   0  0  0  0  0  0  0  0  0  0  0  0
   -0.2915   -2.5301   -2.7604 H   0  0  0  0  0  0  0  0  0  0  0  0
    0.9618   -1.8464   -1.5831 H   0  0  0  0  0  0  0  0  0  0  0  0
    0.0416   -3.1156    0.1776 H   0  0  0  0  0  0  0  0  0  0  0  0
   -1.2313   -3.8271   -1.0237 H   0  0  0  0  0  0  0  0  0  0  0  0
   -1.3818   -1.2727    0.5587 H   0  0  0  0  0  0  0  0  0  0  0  0
   -2.6212   -1.9658   -0.6274 H   0  0  0  0  0  0  0  0  0  0  0  0
    1.4742    3.3628   -1.5223 H   0  0  0  0  0  0  0  0  0  0  0  0
   -0.7234    2.6061    1.3167 H   0  0  0  0  0  0  0  0  0  0  0  0
   -0.4184    0.7127    2.9044 H   0  0  0  0  0  0  0  0  0  0  0  0
    2.1037   -3.5536    3.9139 H   0  0  0  0  0  0  0  0  0  0  0  0
    5.3619   -5.3207    1.2203 H   0  0  0  0  0  0  0  0  0  0  0  0
    2.4853    1.0197   -1.1224 H   0  0  0  0  0  0  0  0  0  0  0  0
  1  2  1  0
  2  3  1  0
  3  4  2  0
  4  5  1  0
  5  6  1  0
  6  7  2  0
  6  8  1  0
  8  9  1  0
  9 10  1  0
 10 11  1  0
  5 12  2  0
 12 13  1  0
 13 14  2  0
 13 15  1  0
 15 16  1  0
 16 17  1  0
 17 18  2  0
 18 19  1  0
 19 20  2  0
 20 21  1  0
 21 22  1  0
 22 23  2  0
 23 24  1  0
 24 25  1  0
 25 26  2  0
 21 27  2  0
 27 28  1  0
 28 29  1  0
 12  2  1  0
 29 16  2  0
 11  8  1  0
 28 19  1  0
 26 22  1  0
  1 30  1  0
  1 31  1  0
  1 32  1  0
  4 33  1  0
  9 34  1  0
  9 35  1  0
 10 36  1  0
 10 37  1  0
 11 38  1  0
 11 39  1  0
 15 40  1  0
 17 41  1  0
 18 42  1  0
 23 43  1  0
 25 44  1  0
 29 45  1  0
M  END
$$$$

     RDKit          3D

 50 53  0  0  0  0  0  0  0  0999 V2000
    6.0086    2.8796   -1.3304 C   0  0  0  0  0  0  0  0  0  0  0  0
    6.0433    1.4576   -1.6804 N   0  0  0  0  0  0  0  0  0  0  0  0
    7.2500    0.8518   -2.2487 C   0  0  0  0  0  0  0  0  0  0  0  0
    4.8774    0.6452   -1.4642 C   0  0  0  0  0  0  0  0  0  0  0  0
    4.8255   -0.6805   -1.7659 N   0  0  0  0  0  0  0  0  0  0  0  0
    3.5676   -0.9801   -1.3958 C   0  0  0  0  0  0  0  0  0  0  0  0
    2.9461   -2.2209   -1.4899 C   0  0  0  0  0  0  0  0  0  0  0  0
    1.6144   -2.3145   -1.0524 C   0  0  0  0  0  0  0  0  0  0  0  0
    0.9487   -1.1802   -0.5224 C   0  0  0  0  0  0  0  0  0  0  0  0
   -0.4219   -1.2382   -0.0957 N   0  0  0  0  0  0  0  0  0  0  0  0
   -1.0015   -2.3492    0.6105 C   0  0  0  0  0  0  0  0  0  0  0  0
   -0.3013   -3.3552    0.9027 O   0  0  0  0  0  0  0  0  0  0  0  0
   -2.4227   -2.3197    1.0166 C   0  0  0  0  0  0  0  0  0  0  0  0
   -3.1383   -1.2223    1.4714 C   0  0  0  0  0  0  0  0  0  0  0  0
   -2.6251    0.1148    1.8227 C   0  0  0  0  0  0  0  0  0  0  0  0
   -1.5117    0.2022    2.4080 O   0  0  0  0  0  0  0  0  0  0  0  0
   -3.3569    1.3121    1.5037 N   0  0  0  0  0  0  0  0  0  0  0  0
   -4.4205    1.3748    0.5140 C   0  0  0  0  0  0  0  0  0  0  0  0
   -4.8257    2.8408    0.4326 C   0  0  0  0  0  0  0  0  0  0  0  0
   -3.7011    3.6275    1.0992 C   0  0  0  0  0  0  0  0  0  0  0  0
   -2.9393    2.6277    1.9593 C   0  0  0  0  0  0  0  0  0  0  0  0
   -4.4072   -1.7084    1.7308 C   0  0  0  0  0  0  0  0  0  0  0  0
   -4.4528   -3.0221    1.4359 N   0  0  0  0  0  0  0  0  0  0  0  0
   -3.2562   -3.3834    0.9994 N   0  0  0  0  0  0  0  0  0  0  0  0
   -2.9327   -4.7479    0.5963 C   0  0  0  0  0  0  0  0  0  0  0  0
    1.6350    0.0482   -0.4779 C   0  0  0  0  0  0  0  0  0  0  0  0
    2.9184    0.0833   -0.9127 N   0  0  0  0  0  0  0  0  0  0  0  0
    3.7218    1.1269   -0.9438 N   0  0  0  0  0  0  0  0  0  0  0  0
    5.2074    3.3880   -1.9076 H   0  0  0  0  0  0  0  0  0  0  0  0
    5.8024    2.9926   -0.2449 H   0  0  0  0  0  0  0  0  0  0  0  0
    6.9728    3.3817   -1.5562 H   0  0  0  0  0  0  0  0  0  0  0  0
    7.6132    0.0445   -1.5784 H   0  0  0  0  0  0  0  0  0  0  0  0
    7.0190    0.4235   -3.2468 H   0  0  0  0  0  0  0  0  0  0  0  0
    8.0644    1.5960   -2.3703 H   0  0  0  0  0  0  0  0  0  0  0  0
    3.4638   -3.0797   -1.8973 H   0  0  0  0  0  0  0  0  0  0  0  0
    1.0995   -3.2597   -1.1565 H   0  0  0  0  0  0  0  0  0  0  0  0
   -1.0076   -0.3889   -0.2567 H   0  0  0  0  0  0  0  0  0  0  0  0
   -5.2896    0.7607    0.8264 H   0  0  0  0  0  0  0  0  0  0  0  0
   -4.0387    1.0209   -0.4686 H   0  0  0  0  0  0  0  0  0  0  0  0
   -5.7719    2.9993    0.9959 H   0  0  0  0  0  0  0  0  0  0  0  0
   -4.9727    3.1615   -0.6218 H   0  0  0  0  0  0  0  0  0  0  0  0
   -4.1020    4.4646    1.7116 H   0  0  0  0  0  0  0  0  0  0  0  0
   -3.0247    4.0397    0.3179 H   0  0  0  0  0  0  0  0  0  0  0  0
   -1.8438    2.7621    1.8229 H   0  0  0  0  0  0  0  0  0  0  0  0
   -3.2033    2.7491    3.0321 H   0  0  0  0  0  0  0  0  0  0  0  0
   -5.2311   -1.1597    2.1657 H   0  0  0  0  0  0  0  0  0  0  0  0
   -2.4087   -4.7409   -0.3830 H   0  0  0  0  0  0  0  0  0  0  0  0
   -2.2842   -5.2206    1.3633 H   0  0  0  0  0  0  0  0  0  0  0  0
   -3.8623   -5.3474    0.4947 H   0  0  0  0  0  0  0  0  0  0  0  0
    1.1564    0.9433   -0.0994 H   0  0  0  0  0  0  0  0  0  0  0  0
  1  2  1  0
  2  3  1  0
  2  4  1  0
  4  5  1  0
  5  6  2  0
  6  7  1  0
  7  8  2  0
  8  9  1  0
  9 10  1  0
 10 11  1  0
 11 12  2  0
 11 13  1  0
 13 14  2  0
 14 15  1  0
 15 16  2  0
 15 17  1  0
 17 18  1  0
 18 19  1  0
 19 20  1  0
 20 21  1  0
 14 22  1  0
 22 23  2  0
 23 24  1  0
 24 25  1  0
  9 26  2  0
 26 27  1  0
 27 28  1  0
 28  4  2  0
 27  6  1  0
 24 13  1  0
 21 17  1  0
  1 29  1  0
  1 30  1  0
  1 31  1  0
  3 32  1  0
  3 33  1  0
  3 34  1  0
  7 35  1  0
  8 36  1  0
 10 37  1  0
 18 38  1  0
 18 39  1  0
 19 40  1  0
 19 41  1  0
 20 42  1  0
 20 43  1  0
 21 44  1  0
 21 45  1  0
 22 46  1  0
 25 47  1  0
 25 48  1  0
 25 49  1  0
 26 50  1  0
M  END
$$$$

     RDKit          3D

 68 71  0  0  0  0  0  0  0  0999 V2000
   -3.2618   -3.8592   -0.2053 C   0  0  0  0  0  0  0  0  0  0  0  0
   -4.2443   -3.1087    0.6921 C   0  0  0  0  0  0  0  0  0  0  0  0
   -3.5460   -2.4471    1.8918 C   0  0  0  0  0  0  0  0  0  0  0  0
   -2.5964   -1.3367    1.4730 C   0  0  0  0  0  0  0  0  0  0  0  0
   -1.2590   -1.5812    1.5426 N   0  0  0  0  0  0  0  0  0  0  0  0
   -0.3229   -0.6715    1.1694 C   0  0  0  0  0  0  0  0  0  0  0  0
    0.8945   -0.9673    1.3127 O   0  0  0  0  0  0  0  0  0  0  0  0
   -0.7060    0.5809    0.6371 C   0  0  0  0  0  0  0  0  0  0  0  0
    0.3441    1.5739    0.1208 C   0  0  0  0  0  0  0  0  0  0  0  0
    1.5780    0.9470   -0.4981 C   0  0  0  0  0  0  0  0  0  0  0  0
    2.8335    1.1946    0.0825 C   0  0  0  0  0  0  0  0  0  0  0  0
    3.9898    0.6223   -0.4572 C   0  0  0  0  0  0  0  0  0  0  0  0
    5.2508    0.8536    0.1130 C   0  0  0  0  0  0  0  0  0  0  0  0
    6.4027    0.2637   -0.4477 C   0  0  0  0  0  0  0  0  0  0  0  0
    7.6902    0.4622    0.0797 O   0  0  0  0  0  0  0  0  0  0  0  0
    7.9972    1.1637    1.2846 C   0  0  0  0  0  0  0  0  0  0  0  0
    7.6540    0.3171    2.5063 C   0  0  0  0  0  0  0  0  0  0  0  0
    6.2720   -0.5493   -1.5829 C   0  0  0  0  0  0  0  0  0  0  0  0
    7.3713   -1.1213   -2.1363 F   0  0  0  0  0  0  0  0  0  0  0  0
    5.0160   -0.7821   -2.1514 C   0  0  0  0  0  0  0  0  0  0  0  0
    3.8751   -0.1995   -1.5935 C   0  0  0  0  0  0  0  0  0  0  0  0
    2.6564   -0.4223   -2.1480 N   0  0  0  0  0  0  0  0  0  0  0  0
    1.5115    0.1207   -1.6473 C   0  0  0  0  0  0  0  0  0  0  0  0
    0.2574   -0.1667   -2.2927 N   0  0  0  0  0  0  0  0  0  0  0  0
    0.1097   -1.2402   -3.2740 C   0  0  0  0  0  0  0  0  0  0  0  0
    0.2379   -2.6033   -2.6017 C   0  0  0  0  0  0  0  0  0  0  0  0
   -2.0911    0.9179    0.6639 C   0  0  0  0  0  0  0  0  0  0  0  0
   -2.5481    2.2165    0.3386 C   0  0  0  0  0  0  0  0  0  0  0  0
   -3.9172    2.5308    0.3269 C   0  0  0  0  0  0  0  0  0  0  0  0
   -4.3880    3.8095   -0.0161 O   0  0  0  0  0  0  0  0  0  0  0  0
   -3.5615    4.9016   -0.4078 C   0  0  0  0  0  0  0  0  0  0  0  0
   -4.8542    1.5562    0.6706 C   0  0  0  0  0  0  0  0  0  0  0  0
   -6.2149    1.9039    0.6380 O   0  0  0  0  0  0  0  0  0  0  0  0
   -7.2868    1.0203    0.9519 C   0  0  0  0  0  0  0  0  0  0  0  0
   -4.4193    0.2760    1.0455 C   0  0  0  0  0  0  0  0  0  0  0  0
   -3.0476   -0.0590    1.0551 C   0  0  0  0  0  0  0  0  0  0  0  0
   -2.5521   -3.1481   -0.6741 H   0  0  0  0  0  0  0  0  0  0  0  0
   -2.6948   -4.6130    0.3823 H   0  0  0  0  0  0  0  0  0  0  0  0
   -3.8190   -4.3792   -1.0129 H   0  0  0  0  0  0  0  0  0  0  0  0
   -4.7853   -2.3556    0.0812 H   0  0  0  0  0  0  0  0  0  0  0  0
   -4.9961   -3.8321    1.0764 H   0  0  0  0  0  0  0  0  0  0  0  0
   -2.9965   -3.2345    2.4522 H   0  0  0  0  0  0  0  0  0  0  0  0
   -4.2981   -2.0567    2.6092 H   0  0  0  0  0  0  0  0  0  0  0  0
   -0.9256   -2.5097    1.8897 H   0  0  0  0  0  0  0  0  0  0  0  0
   -0.0710    2.2157   -0.6805 H   0  0  0  0  0  0  0  0  0  0  0  0
    0.6184    2.2447    0.9633 H   0  0  0  0  0  0  0  0  0  0  0  0
    2.9079    1.8265    0.9603 H   0  0  0  0  0  0  0  0  0  0  0  0
    5.3247    1.4915    0.9829 H   0  0  0  0  0  0  0  0  0  0  0  0
    7.4759    2.1440    1.3179 H   0  0  0  0  0  0  0  0  0  0  0  0
    9.0882    1.3699    1.2984 H   0  0  0  0  0  0  0  0  0  0  0  0
    8.2135   -0.6414    2.4698 H   0  0  0  0  0  0  0  0  0  0  0  0
    7.9374    0.8626    3.4308 H   0  0  0  0  0  0  0  0  0  0  0  0
    6.5670    0.0974    2.5399 H   0  0  0  0  0  0  0  0  0  0  0  0
    4.9321   -1.4149   -3.0268 H   0  0  0  0  0  0  0  0  0  0  0  0
   -0.5845    0.4174   -2.0939 H   0  0  0  0  0  0  0  0  0  0  0  0
    0.8732   -1.1338   -4.0737 H   0  0  0  0  0  0  0  0  0  0  0  0
   -0.8934   -1.1693   -3.7474 H   0  0  0  0  0  0  0  0  0  0  0  0
    1.2682   -2.7547   -2.2192 H   0  0  0  0  0  0  0  0  0  0  0  0
    0.0119   -3.4048   -3.3358 H   0  0  0  0  0  0  0  0  0  0  0  0
   -0.4740   -2.6775   -1.7542 H   0  0  0  0  0  0  0  0  0  0  0  0
   -1.8517    3.0094    0.1285 H   0  0  0  0  0  0  0  0  0  0  0  0
   -4.2035    5.7754   -0.6422 H   0  0  0  0  0  0  0  0  0  0  0  0
   -2.8748    5.1779    0.4206 H   0  0  0  0  0  0  0  0  0  0  0  0
   -2.9803    4.6347   -1.3161 H   0  0  0  0  0  0  0  0  0  0  0  0
   -7.2035    0.6769    2.0049 H   0  0  0  0  0  0  0  0  0  0  0  0
   -7.2804    0.1506    0.2615 H   0  0  0  0  0  0  0  0  0  0  0  0
   -8.2482    1.5601    0.8307 H   0  0  0  0  0  0  0  0  0  0  0  0
   -5.1622   -0.4462    1.3400 H   0  0  0  0  0  0  0  0  0  0  0  0
  1  2  1  0
  2  3  1  0
  3  4  1  0
  4  5  1  0
  5  6  1  0
  6  7  2  0
  6  8  1  0
  8  9  1  0
  9 10  1  0
 10 11  2  0
 11 12  1  0
 12 13  2  0
 13 14  1  0
 14 15  1  0
 15 16  1  0
 16 17  1  0
 14 18  2  0
 18 19  1  0
 18 20  1  0
 20 21  2  0
 21 22  1  0
 22 23  2  0
 23 24  1  0
 24 25  1  0
 25 26  1  0
  8 27  2  0
 27 28  1  0
 28 29  2  0
 29 30  1  0
 30 31  1  0
 29 32  1  0
 32 33  1  0
 33 34  1  0
 32 35  2  0
 35 36  1  0
 36  4  2  0
 23 10  1  0
 36 27  1  0
 21 12  1  0
  1 37  1  0
  1 38  1  0
  1 39  1  0
  2 40  1  0
  2 41  1  0
  3 42  1  0
  3 43  1  0
  5 44  1  0
  9 45  1  0
  9 46  1  0
 11 47  1  0
 13 48  1  0
 16 49  1  0
 16 50  1  0
 17 51  1  0
 17 52  1  0
 17 53  1  0
 20 54  1  0
 24 55  1  0
 25 56  1  0
 25 57  1  0
 26 58  1  0
 26 59  1  0
 26 60  1  0
 28 61  1  0
 31 62  1  0
 31 63  1  0
 31 64  1  0
 34 65  1  0
 34 66  1  0
 34 67  1  0
 35 68  1  0
M  END
$$$$

     RDKit          3D

 52 56  0  0  0  0  0  0  0  0999 V2000
   -5.0397    0.8350   -0.9617 C   0  0  0  0  0  0  0  0  0  0  0  0
   -4.3907   -0.4408   -0.6578 N   0  0  0  0  0  0  0  0  0  0  0  0
   -5.0222   -1.3250    0.2831 C   0  0  0  0  0  0  0  0  0  0  0  0
   -6.1855   -1.7548    0.0357 O   0  0  0  0  0  0  0  0  0  0  0  0
   -4.3466   -1.7461    1.5286 C   0  0  0  0  0  0  0  0  0  0  0  0
   -4.8035   -2.7167    2.4065 C   0  0  0  0  0  0  0  0  0  0  0  0
   -3.9133   -2.8785    3.4050 N   0  0  0  0  0  0  0  0  0  0  0  0
   -2.9116   -2.0385    3.1933 N   0  0  0  0  0  0  0  0  0  0  0  0
   -1.7503   -1.9425    4.0713 C   0  0  0  0  0  0  0  0  0  0  0  0
   -3.1336   -1.3364    2.0602 C   0  0  0  0  0  0  0  0  0  0  0  0
   -2.2214   -0.3193    1.5193 C   0  0  0  0  0  0  0  0  0  0  0  0
   -2.6073    0.8782    1.4570 O   0  0  0  0  0  0  0  0  0  0  0  0
   -0.8855   -0.6923    1.1448 N   0  0  0  0  0  0  0  0  0  0  0  0
    0.1062    0.1847    0.5800 C   0  0  0  0  0  0  0  0  0  0  0  0
   -0.2359    1.3166   -0.2131 C   0  0  0  0  0  0  0  0  0  0  0  0
    0.7682    2.1256   -0.7703 C   0  0  0  0  0  0  0  0  0  0  0  0
    2.0910    1.7678   -0.5336 C   0  0  0  0  0  0  0  0  0  0  0  0
    3.1919    2.3871   -0.9942 N   0  0  0  0  0  0  0  0  0  0  0  0
    4.1783    1.6031   -0.4832 C   0  0  0  0  0  0  0  0  0  0  0  0
    5.6195    1.8403   -0.7152 C   0  0  0  0  0  0  0  0  0  0  0  0
    6.0467    2.8998   -1.5353 C   0  0  0  0  0  0  0  0  0  0  0  0
    7.4113    3.1064   -1.7666 C   0  0  0  0  0  0  0  0  0  0  0  0
    8.3596    2.2656   -1.1785 C   0  0  0  0  0  0  0  0  0  0  0  0
    7.9457    1.2160   -0.3579 C   0  0  0  0  0  0  0  0  0  0  0  0
    6.5839    0.9988   -0.1275 C   0  0  0  0  0  0  0  0  0  0  0  0
    3.7024    0.5671    0.2470 N   0  0  0  0  0  0  0  0  0  0  0  0
    2.3927    0.6965    0.1975 N   0  0  0  0  0  0  0  0  0  0  0  0
    1.4673   -0.1142    0.7666 C   0  0  0  0  0  0  0  0  0  0  0  0
   -3.2400   -0.8297   -1.4913 C   0  0  0  0  0  0  0  0  0  0  0  0
   -3.6065   -1.8864   -2.5237 C   0  0  0  0  0  0  0  0  0  0  0  0
   -2.6886   -2.2468   -1.3619 C   0  0  0  0  0  0  0  0  0  0  0  0
   -4.2997    1.6588   -0.8792 H   0  0  0  0  0  0  0  0  0  0  0  0
   -5.4524    0.8111   -1.9963 H   0  0  0  0  0  0  0  0  0  0  0  0
   -5.8693    1.0398   -0.2493 H   0  0  0  0  0  0  0  0  0  0  0  0
   -5.7226   -3.2811    2.3170 H   0  0  0  0  0  0  0  0  0  0  0  0
   -0.9112   -2.5309    3.6491 H   0  0  0  0  0  0  0  0  0  0  0  0
   -1.9991   -2.3433    5.0745 H   0  0  0  0  0  0  0  0  0  0  0  0
   -1.4417   -0.8822    4.1848 H   0  0  0  0  0  0  0  0  0  0  0  0
   -0.5963   -1.6833    1.3331 H   0  0  0  0  0  0  0  0  0  0  0  0
   -1.2656    1.5592   -0.4317 H   0  0  0  0  0  0  0  0  0  0  0  0
    0.5192    2.9885   -1.3741 H   0  0  0  0  0  0  0  0  0  0  0  0
    5.3275    3.5658   -2.0004 H   0  0  0  0  0  0  0  0  0  0  0  0
    7.7335    3.9141   -2.4065 H   0  0  0  0  0  0  0  0  0  0  0  0
    9.4141    2.4286   -1.3585 H   0  0  0  0  0  0  0  0  0  0  0  0
    8.6815    0.5637    0.0989 H   0  0  0  0  0  0  0  0  0  0  0  0
    6.2867    0.1734    0.5084 H   0  0  0  0  0  0  0  0  0  0  0  0
    1.7743   -0.9755    1.3461 H   0  0  0  0  0  0  0  0  0  0  0  0
   -2.5716   -0.0315   -1.8775 H   0  0  0  0  0  0  0  0  0  0  0  0
   -3.0912   -1.7693   -3.4971 H   0  0  0  0  0  0  0  0  0  0  0  0
   -4.6165   -2.3451   -2.4343 H   0  0  0  0  0  0  0  0  0  0  0  0
   -3.1620   -2.9284   -0.6292 H   0  0  0  0  0  0  0  0  0  0  0  0
   -1.6202   -2.3528   -1.6553 H   0  0  0  0  0  0  0  0  0  0  0  0
  1  2  1  0
  2  3  1  0
  3  4  2  0
  3  5  1  0
  5  6  1  0
  6  7  2  0
  7  8  1  0
  8  9  1  0
  8 10  1  0
 10 11  1  0
 11 12  2  0
 11 13  1  0
 13 14  1  0
 14 15  1  0
 15 16  2  0
 16 17  1  0
 17 18  2  0
 18 19  1  0
 19 20  1  0
 20 21  2  0
 21 22  1  0
 22 23  2  0
 23 24  1  0
 24 25  2  0
 19 26  2  0
 26 27  1  0
 27 28  1  0
  2 29  1  0
 29 30  1  0
 30 31  1  0
 10  5  2  0
 28 14  2  0
 31 29  1  0
 27 17  1  0
 25 20  1  0
  1 32  1  0
  1 33  1  0
  1 34  1  0
  6 35  1  0
  9 36  1  0
  9 37  1  0
  9 38  1  0
 13 39  1  0
 15 40  1  0
 16 41  1  0
 21 42  1  0
 22 43  1  0
 23 44  1  0
 24 45  1  0
 25 46  1  0
 28 47  1  0
 29 48  1  0
 30 49  1  0
 30 50  1  0
 31 51  1  0
 31 52  1  0
M  END
$$$$

     RDKit          3D

 47 50  0  0  0  0  0  0  0  0999 V2000
   -6.0818   -0.2546   -2.9433 C   0  0  0  0  0  0  0  0  0  0  0  0
   -6.1739    0.0900   -1.5226 N   0  0  0  0  0  0  0  0  0  0  0  0
   -7.4735    0.3195   -0.8868 C   0  0  0  0  0  0  0  0  0  0  0  0
   -4.9727    0.2045   -0.7414 C   0  0  0  0  0  0  0  0  0  0  0  0
   -4.9707    0.5214    0.5818 N   0  0  0  0  0  0  0  0  0  0  0  0
   -3.6526    0.5054    0.8487 C   0  0  0  0  0  0  0  0  0  0  0  0
   -3.0486    0.7726    2.0728 C   0  0  0  0  0  0  0  0  0  0  0  0
   -1.6465    0.7069    2.1325 C   0  0  0  0  0  0  0  0  0  0  0  0
   -0.8914    0.3640    0.9823 C   0  0  0  0  0  0  0  0  0  0  0  0
    0.5443    0.3158    1.0067 N   0  0  0  0  0  0  0  0  0  0  0  0
    1.3162   -0.1953    2.1068 C   0  0  0  0  0  0  0  0  0  0  0  0
    0.7451   -0.6593    3.1298 O   0  0  0  0  0  0  0  0  0  0  0  0
    2.7916   -0.1849    2.0515 C   0  0  0  0  0  0  0  0  0  0  0  0
    3.5944   -0.5293    0.9720 C   0  0  0  0  0  0  0  0  0  0  0  0
    3.1884   -1.1314   -0.3136 C   0  0  0  0  0  0  0  0  0  0  0  0
    2.1018   -1.7634   -0.3917 O   0  0  0  0  0  0  0  0  0  0  0  0
    4.0036   -1.0099   -1.4807 N   0  0  0  0  0  0  0  0  0  0  0  0
    5.2582   -0.3582   -1.9039 C   0  0  0  0  0  0  0  0  0  0  0  0
    5.1522   -0.7346   -3.3443 C   0  0  0  0  0  0  0  0  0  0  0  0
    6.1214   -1.6460   -3.7291 F   0  0  0  0  0  0  0  0  0  0  0  0
    3.8905   -1.3954   -2.8993 C   0  0  0  0  0  0  0  0  0  0  0  0
    4.8886   -0.3152    1.4161 C   0  0  0  0  0  0  0  0  0  0  0  0
    4.8610    0.1279    2.6880 N   0  0  0  0  0  0  0  0  0  0  0  0
    3.5946    0.2078    3.0638 N   0  0  0  0  0  0  0  0  0  0  0  0
    3.1799    0.6559    4.3891 C   0  0  0  0  0  0  0  0  0  0  0  0
   -1.5708    0.1280   -0.2279 C   0  0  0  0  0  0  0  0  0  0  0  0
   -2.9242    0.2043   -0.2305 N   0  0  0  0  0  0  0  0  0  0  0  0
   -3.7322    0.0087   -1.2524 N   0  0  0  0  0  0  0  0  0  0  0  0
   -5.4846    0.5147   -3.4767 H   0  0  0  0  0  0  0  0  0  0  0  0
   -5.5890   -1.2433   -3.0570 H   0  0  0  0  0  0  0  0  0  0  0  0
   -7.0838   -0.3086   -3.4183 H   0  0  0  0  0  0  0  0  0  0  0  0
   -7.5129    1.3514   -0.4783 H   0  0  0  0  0  0  0  0  0  0  0  0
   -7.6183   -0.4067   -0.0593 H   0  0  0  0  0  0  0  0  0  0  0  0
   -8.3098    0.1982   -1.6068 H   0  0  0  0  0  0  0  0  0  0  0  0
   -3.6350    1.0337    2.9442 H   0  0  0  0  0  0  0  0  0  0  0  0
   -1.1549    0.9521    3.0640 H   0  0  0  0  0  0  0  0  0  0  0  0
    1.0497    0.6112    0.1414 H   0  0  0  0  0  0  0  0  0  0  0  0
    5.2072    0.7420   -1.7461 H   0  0  0  0  0  0  0  0  0  0  0  0
    6.1394   -0.8219   -1.4089 H   0  0  0  0  0  0  0  0  0  0  0  0
    5.0067    0.1222   -4.0372 H   0  0  0  0  0  0  0  0  0  0  0  0
    2.9873   -0.9393   -3.3624 H   0  0  0  0  0  0  0  0  0  0  0  0
    3.9119   -2.5023   -3.0126 H   0  0  0  0  0  0  0  0  0  0  0  0
    5.8005   -0.5117    0.8729 H   0  0  0  0  0  0  0  0  0  0  0  0
    2.3960    1.4372    4.2970 H   0  0  0  0  0  0  0  0  0  0  0  0
    2.7820   -0.2041    4.9671 H   0  0  0  0  0  0  0  0  0  0  0  0
    4.0454    1.0859    4.9366 H   0  0  0  0  0  0  0  0  0  0  0  0
   -1.0308   -0.1176   -1.1342 H   0  0  0  0  0  0  0  0  0  0  0  0
  1  2  1  0
  2  3  1  0
  2  4  1  0
  4  5  1  0
  5  6  2  0
  6  7  1  0
  7  8  2  0
  8  9  1  0
  9 10  1  0
 10 11  1  0
 11 12  2  0
 11 13  1  0
 13 14  2  0
 14 15  1  0
 15 16  2  0
 15 17  1  0
 17 18  1  0
 18 19  1  0
 19 20  1  0
 19 21  1  0
 14 22  1  0
 22 23  2  0
 23 24  1  0
 24 25  1  0
  9 26  2  0
 26 27  1  0
 27 28  1  0
 28  4  2  0
 27  6  1  0
 24 13  1  0
 21 17  1  0
  1 29  1  0
  1 30  1  0
  1 31  1  0
  3 32  1  0
  3 33  1  0
  3 34  1  0
  7 35  1  0
  8 36  1  0
 10 37  1  0
 18 38  1  0
 18 39  1  0
 19 40  1  0
 21 41  1  0
 21 42  1  0
 22 43  1  0
 25 44  1  0
 25 45  1  0
 25 46  1  0
 26 47  1  0
M  END
$$$$

     RDKit          3D

 52 55  0  0  0  0  0  0  0  0999 V2000
    4.1275   -2.0018   -0.9437 C   0  0  0  0  0  0  0  0  0  0  0  0
    4.9243   -1.2558   -0.0544 O   0  0  0  0  0  0  0  0  0  0  0  0
    4.3478   -1.3565    1.1764 N   0  0  0  0  0  0  0  0  0  0  0  0
    4.7722   -2.4221    2.0821 C   0  0  0  0  0  0  0  0  0  0  0  0
    3.3694   -0.3908    1.5995 C   0  0  0  0  0  0  0  0  0  0  0  0
    2.6727   -0.6075    2.6261 O   0  0  0  0  0  0  0  0  0  0  0  0
    3.1389    0.8435    0.8282 C   0  0  0  0  0  0  0  0  0  0  0  0
    1.9207    1.2995    0.3666 C   0  0  0  0  0  0  0  0  0  0  0  0
    0.6678    0.6027    0.4465 N   0  0  0  0  0  0  0  0  0  0  0  0
   -0.6041    1.1861    0.1195 C   0  0  0  0  0  0  0  0  0  0  0  0
   -0.7244    2.4376    0.0504 O   0  0  0  0  0  0  0  0  0  0  0  0
   -1.7650    0.3064   -0.1519 C   0  0  0  0  0  0  0  0  0  0  0  0
   -1.5226   -0.9871   -0.5010 N   0  0  0  0  0  0  0  0  0  0  0  0
   -2.5186   -1.8592   -0.8108 C   0  0  0  0  0  0  0  0  0  0  0  0
   -2.2201   -3.2861   -1.1917 C   0  0  0  0  0  0  0  0  0  0  0  0
   -1.7152   -4.1332   -0.0326 C   0  0  0  0  0  0  0  0  0  0  0  0
   -0.7648   -3.7391   -1.1513 C   0  0  0  0  0  0  0  0  0  0  0  0
   -3.8393   -1.4110   -0.7753 C   0  0  0  0  0  0  0  0  0  0  0  0
   -4.0991   -0.1256   -0.4246 N   0  0  0  0  0  0  0  0  0  0  0  0
   -3.1069    0.7523   -0.1132 C   0  0  0  0  0  0  0  0  0  0  0  0
   -3.4532    2.0715    0.3353 N   0  0  0  0  0  0  0  0  0  0  0  0
   -4.5687    2.8158   -0.1832 C   0  0  0  0  0  0  0  0  0  0  0  0
   -5.1582    3.8260    0.5842 C   0  0  0  0  0  0  0  0  0  0  0  0
   -6.1903    4.5518    0.0816 N   0  0  0  0  0  0  0  0  0  0  0  0
   -6.6585    4.3232   -1.1710 C   0  0  0  0  0  0  0  0  0  0  0  0
   -6.0947    3.3586   -1.9425 N   0  0  0  0  0  0  0  0  0  0  0  0
   -5.0631    2.6068   -1.4790 C   0  0  0  0  0  0  0  0  0  0  0  0
    2.2010    2.4694   -0.3170 C   0  0  0  0  0  0  0  0  0  0  0  0
    3.5258    2.7114   -0.2406 N   0  0  0  0  0  0  0  0  0  0  0  0
    4.0842    1.7359    0.4615 N   0  0  0  0  0  0  0  0  0  0  0  0
    5.5158    1.6755    0.7406 C   0  0  0  0  0  0  0  0  0  0  0  0
    3.0970   -1.5853   -0.9975 H   0  0  0  0  0  0  0  0  0  0  0  0
    4.5741   -1.9465   -1.9577 H   0  0  0  0  0  0  0  0  0  0  0  0
    4.0905   -3.0721   -0.6433 H   0  0  0  0  0  0  0  0  0  0  0  0
    3.9080   -3.0792    2.3205 H   0  0  0  0  0  0  0  0  0  0  0  0
    5.5672   -3.0359    1.6080 H   0  0  0  0  0  0  0  0  0  0  0  0
    5.1730   -1.9834    3.0206 H   0  0  0  0  0  0  0  0  0  0  0  0
    0.6865   -0.3937    0.7577 H   0  0  0  0  0  0  0  0  0  0  0  0
   -2.8817   -3.8221   -1.9035 H   0  0  0  0  0  0  0  0  0  0  0  0
   -1.5298   -3.5986    0.9230 H   0  0  0  0  0  0  0  0  0  0  0  0
   -2.0352   -5.1954   -0.0666 H   0  0  0  0  0  0  0  0  0  0  0  0
   -0.0018   -2.9937   -0.8428 H   0  0  0  0  0  0  0  0  0  0  0  0
   -0.5239   -4.5735   -1.8421 H   0  0  0  0  0  0  0  0  0  0  0  0
   -4.6571   -2.0773   -1.0182 H   0  0  0  0  0  0  0  0  0  0  0  0
   -2.9437    2.4591    1.1609 H   0  0  0  0  0  0  0  0  0  0  0  0
   -4.7993    4.0339    1.5837 H   0  0  0  0  0  0  0  0  0  0  0  0
   -7.4804    4.9112   -1.5568 H   0  0  0  0  0  0  0  0  0  0  0  0
   -4.6204    1.8651   -2.1294 H   0  0  0  0  0  0  0  0  0  0  0  0
    1.5073    3.0893   -0.8667 H   0  0  0  0  0  0  0  0  0  0  0  0
    5.9316    2.7020    0.7985 H   0  0  0  0  0  0  0  0  0  0  0  0
    5.7036    1.1692    1.7098 H   0  0  0  0  0  0  0  0  0  0  0  0
    6.0328    1.1285   -0.0729 H   0  0  0  0  0  0  0  0  0  0  0  0
  1  2  1  0
  2  3  1  0
  3  4  1  0
  3  5  1  0
  5  6  2  0
  5  7  1  0
  7  8  2  0
  8  9  1  0
  9 10  1  0
 10 11  2  0
 10 12  1  0
 12 13  2  0
 13 14  1  0
 14 15  1  0
 15 16  1  0
 16 17  1  0
 14 18  2  0
 18 19  1  0
 19 20  2  0
 20 21  1  0
 21 22  1  0
 22 23  2  0
 23 24  1  0
 24 25  2  0
 25 26  1  0
 26 27  2  0
  8 28  1  0
 28 29  2  0
 29 30  1  0
 30 31  1  0
 30  7  1  0
 20 12  1  0
 27 22  1  0
 17 15  1  0
  1 32  1  0
  1 33  1  0
  1 34  1  0
  4 35  1  0
  4 36  1  0
  4 37  1  0
  9 38  1  0
 15 39  1  0
 16 40  1  0
 16 41  1  0
 17 42  1  0
 17 43  1  0
 18 44  1  0
 21 45  1  0
 23 46  1  0
 25 47  1  0
 27 48  1  0
 28 49  1  0
 31 50  1  0
 31 51  1  0
 31 52  1  0
M  END
$$$$

     RDKit          3D

 51 54  0  0  0  0  0  0  0  0999 V2000
   -5.1016    1.6825   -1.8810 C   0  0  0  0  0  0  0  0  0  0  0  0
   -3.9508    1.5780   -0.8856 C   0  0  0  0  0  0  0  0  0  0  0  0
   -4.4630    1.3635    0.4773 N   0  0  0  0  0  0  0  0  0  0  0  0
   -4.4052    2.4425    1.4672 C   0  0  0  0  0  0  0  0  0  0  0  0
   -5.1471    0.1437    0.8242 C   0  0  0  0  0  0  0  0  0  0  0  0
   -6.1697    0.1906    1.5599 O   0  0  0  0  0  0  0  0  0  0  0  0
   -4.6971   -1.1665    0.3202 C   0  0  0  0  0  0  0  0  0  0  0  0
   -5.5142   -2.1977   -0.1011 C   0  0  0  0  0  0  0  0  0  0  0  0
   -4.7542   -3.2420   -0.4832 N   0  0  0  0  0  0  0  0  0  0  0  0
   -3.4842   -2.9108   -0.3049 N   0  0  0  0  0  0  0  0  0  0  0  0
   -2.3820   -3.8295   -0.5724 C   0  0  0  0  0  0  0  0  0  0  0  0
   -3.4050   -1.6508    0.1814 C   0  0  0  0  0  0  0  0  0  0  0  0
   -2.1622   -0.9765    0.6113 C   0  0  0  0  0  0  0  0  0  0  0  0
   -2.1850   -0.2246    1.6229 O   0  0  0  0  0  0  0  0  0  0  0  0
   -0.9558   -1.1207   -0.1522 N   0  0  0  0  0  0  0  0  0  0  0  0
    0.3543   -0.8189    0.3558 C   0  0  0  0  0  0  0  0  0  0  0  0
    0.6797   -0.9920    1.7255 C   0  0  0  0  0  0  0  0  0  0  0  0
    1.9747   -0.7127    2.1929 C   0  0  0  0  0  0  0  0  0  0  0  0
    2.9128   -0.2781    1.2628 C   0  0  0  0  0  0  0  0  0  0  0  0
    4.1984    0.0348    1.5018 N   0  0  0  0  0  0  0  0  0  0  0  0
    4.6281    0.3759    0.2560 C   0  0  0  0  0  0  0  0  0  0  0  0
    6.0101    0.8111   -0.0399 C   0  0  0  0  0  0  0  0  0  0  0  0
    6.3865    1.1483   -1.3529 C   0  0  0  0  0  0  0  0  0  0  0  0
    7.6942    1.5595   -1.6297 C   0  0  0  0  0  0  0  0  0  0  0  0
    8.6368    1.6382   -0.6018 C   0  0  0  0  0  0  0  0  0  0  0  0
    8.2737    1.3057    0.7053 C   0  0  0  0  0  0  0  0  0  0  0  0
    6.9674    0.8939    0.9878 C   0  0  0  0  0  0  0  0  0  0  0  0
    3.6576    0.2738   -0.6864 N   0  0  0  0  0  0  0  0  0  0  0  0
    2.5945   -0.1377   -0.0264 N   0  0  0  0  0  0  0  0  0  0  0  0
    1.3623   -0.3932   -0.5303 C   0  0  0  0  0  0  0  0  0  0  0  0
   -5.7839    2.5083   -1.5879 H   0  0  0  0  0  0  0  0  0  0  0  0
   -4.7003    1.8911   -2.8951 H   0  0  0  0  0  0  0  0  0  0  0  0
   -5.6720    0.7304   -1.9145 H   0  0  0  0  0  0  0  0  0  0  0  0
   -3.3511    2.5117   -0.9422 H   0  0  0  0  0  0  0  0  0  0  0  0
   -3.2789    0.7497   -1.1860 H   0  0  0  0  0  0  0  0  0  0  0  0
   -5.4336    2.7672    1.7319 H   0  0  0  0  0  0  0  0  0  0  0  0
   -3.8896    2.0817    2.3819 H   0  0  0  0  0  0  0  0  0  0  0  0
   -3.8524    3.3247    1.0818 H   0  0  0  0  0  0  0  0  0  0  0  0
   -6.5956   -2.1871   -0.1351 H   0  0  0  0  0  0  0  0  0  0  0  0
   -1.6341   -3.7825    0.2470 H   0  0  0  0  0  0  0  0  0  0  0  0
   -2.7619   -4.8713   -0.6365 H   0  0  0  0  0  0  0  0  0  0  0  0
   -1.9019   -3.5683   -1.5379 H   0  0  0  0  0  0  0  0  0  0  0  0
   -1.0485   -1.3529   -1.1666 H   0  0  0  0  0  0  0  0  0  0  0  0
   -0.0563   -1.3640    2.4254 H   0  0  0  0  0  0  0  0  0  0  0  0
    2.2342   -0.8412    3.2358 H   0  0  0  0  0  0  0  0  0  0  0  0
    5.6722    1.0945   -2.1648 H   0  0  0  0  0  0  0  0  0  0  0  0
    7.9767    1.8174   -2.6422 H   0  0  0  0  0  0  0  0  0  0  0  0
    9.6483    1.9567   -0.8182 H   0  0  0  0  0  0  0  0  0  0  0  0
    9.0049    1.3671    1.5010 H   0  0  0  0  0  0  0  0  0  0  0  0
    6.7078    0.6410    2.0081 H   0  0  0  0  0  0  0  0  0  0  0  0
    1.1621   -0.2641   -1.5869 H   0  0  0  0  0  0  0  0  0  0  0  0
  1  2  1  0
  2  3  1  0
  3  4  1  0
  3  5  1  0
  5  6  2  0
  5  7  1  0
  7  8  1  0
  8  9  2  0
  9 10  1  0
 10 11  1  0
 10 12  1  0
 12 13  1  0
 13 14  2  0
 13 15  1  0
 15 16  1  0
 16 17  1  0
 17 18  2  0
 18 19  1  0
 19 20  2  0
 20 21  1  0
 21 22  1  0
 22 23  2  0
 23 24  1  0
 24 25  2  0
 25 26  1  0
 26 27  2  0
 21 28  2  0
 28 29  1  0
 29 30  1  0
 12  7  2  0
 30 16  2  0
 29 19  1  0
 27 22  1  0
  1 31  1  0
  1 32  1  0
  1 33  1  0
  2 34  1  0
  2 35  1  0
  4 36  1  0
  4 37  1  0
  4 38  1  0
  8 39  1  0
 11 40  1  0
 11 41  1  0
 11 42  1  0
 15 43  1  0
 17 44  1  0
 18 45  1  0
 23 46  1  0
 24 47  1  0
 25 48  1  0
 26 49  1  0
 27 50  1  0
 30 51  1  0
M  END
$$$$

     RDKit          3D

 64 67  0  0  0  0  0  0  0  0999 V2000
   -5.0941    4.2886   -0.1493 C   0  0  0  0  0  0  0  0  0  0  0  0
   -4.2437    3.1710    0.4463 C   0  0  0  0  0  0  0  0  0  0  0  0
   -3.0123    2.8901   -0.4251 C   0  0  0  0  0  0  0  0  0  0  0  0
   -2.1948    1.7505    0.1350 C   0  0  0  0  0  0  0  0  0  0  0  0
   -1.0650    2.0755    0.8101 N   0  0  0  0  0  0  0  0  0  0  0  0
   -0.2448    1.1497    1.3549 C   0  0  0  0  0  0  0  0  0  0  0  0
   -0.5194   -0.2205    1.2348 C   0  0  0  0  0  0  0  0  0  0  0  0
    0.5191   -1.1793    1.8054 C   0  0  0  0  0  0  0  0  0  0  0  0
    1.8773   -0.9473    1.1752 C   0  0  0  0  0  0  0  0  0  0  0  0
    2.9226   -0.4305    1.9589 C   0  0  0  0  0  0  0  0  0  0  0  0
    4.1604   -0.1328    1.3795 C   0  0  0  0  0  0  0  0  0  0  0  0
    5.2142    0.3911    2.1430 C   0  0  0  0  0  0  0  0  0  0  0  0
    6.4454    0.6883    1.5443 C   0  0  0  0  0  0  0  0  0  0  0  0
    7.4685    1.2091    2.3510 O   0  0  0  0  0  0  0  0  0  0  0  0
    8.7674    1.5538    1.8804 C   0  0  0  0  0  0  0  0  0  0  0  0
    6.6160    0.4569    0.1644 C   0  0  0  0  0  0  0  0  0  0  0  0
    5.5670   -0.0630   -0.6000 C   0  0  0  0  0  0  0  0  0  0  0  0
    4.3401   -0.3580    0.0012 C   0  0  0  0  0  0  0  0  0  0  0  0
    3.3218   -0.8638   -0.7411 N   0  0  0  0  0  0  0  0  0  0  0  0
    2.1092   -1.1721   -0.2029 C   0  0  0  0  0  0  0  0  0  0  0  0
    1.0846   -1.7161   -1.0498 N   0  0  0  0  0  0  0  0  0  0  0  0
    1.0056   -1.4065   -2.4745 C   0  0  0  0  0  0  0  0  0  0  0  0
    0.5779    0.0428   -2.6791 C   0  0  0  0  0  0  0  0  0  0  0  0
   -1.7241   -0.6144    0.5798 C   0  0  0  0  0  0  0  0  0  0  0  0
   -2.1315   -1.9648    0.4881 C   0  0  0  0  0  0  0  0  0  0  0  0
   -3.2953   -2.3338   -0.2081 C   0  0  0  0  0  0  0  0  0  0  0  0
   -3.7063   -3.6731   -0.3209 O   0  0  0  0  0  0  0  0  0  0  0  0
   -3.0153   -4.7857    0.2382 C   0  0  0  0  0  0  0  0  0  0  0  0
   -4.0824   -1.3530   -0.8131 C   0  0  0  0  0  0  0  0  0  0  0  0
   -5.2328   -1.7614   -1.5085 O   0  0  0  0  0  0  0  0  0  0  0  0
   -6.1417   -0.8802   -2.1613 C   0  0  0  0  0  0  0  0  0  0  0  0
   -3.7144   -0.0033   -0.7071 C   0  0  0  0  0  0  0  0  0  0  0  0
   -2.5561    0.3850   -0.0025 C   0  0  0  0  0  0  0  0  0  0  0  0
   -5.4630    3.9962   -1.1556 H   0  0  0  0  0  0  0  0  0  0  0  0
   -5.9684    4.4813    0.5077 H   0  0  0  0  0  0  0  0  0  0  0  0
   -4.5002    5.2234   -0.2333 H   0  0  0  0  0  0  0  0  0  0  0  0
   -4.8715    2.2606    0.5452 H   0  0  0  0  0  0  0  0  0  0  0  0
   -3.9144    3.4723    1.4645 H   0  0  0  0  0  0  0  0  0  0  0  0
   -2.3851    3.8089   -0.4470 H   0  0  0  0  0  0  0  0  0  0  0  0
   -3.2967    2.6852   -1.4790 H   0  0  0  0  0  0  0  0  0  0  0  0
    0.6444    1.4877    1.8719 H   0  0  0  0  0  0  0  0  0  0  0  0
    0.2838   -2.2491    1.6950 H   0  0  0  0  0  0  0  0  0  0  0  0
    0.5638   -1.0069    2.9029 H   0  0  0  0  0  0  0  0  0  0  0  0
    2.7657   -0.2432    3.0152 H   0  0  0  0  0  0  0  0  0  0  0  0
    5.0841    0.5703    3.2041 H   0  0  0  0  0  0  0  0  0  0  0  0
    8.6953    2.3482    1.1078 H   0  0  0  0  0  0  0  0  0  0  0  0
    9.3704    1.9373    2.7288 H   0  0  0  0  0  0  0  0  0  0  0  0
    9.2723    0.6576    1.4618 H   0  0  0  0  0  0  0  0  0  0  0  0
    7.5545    0.6754   -0.3263 H   0  0  0  0  0  0  0  0  0  0  0  0
    5.7108   -0.2371   -1.6596 H   0  0  0  0  0  0  0  0  0  0  0  0
    0.3767   -2.3712   -0.6528 H   0  0  0  0  0  0  0  0  0  0  0  0
    0.2546   -2.0711   -2.9537 H   0  0  0  0  0  0  0  0  0  0  0  0
    1.9876   -1.5889   -2.9617 H   0  0  0  0  0  0  0  0  0  0  0  0
   -0.4016    0.2219   -2.1884 H   0  0  0  0  0  0  0  0  0  0  0  0
    0.4796    0.2535   -3.7642 H   0  0  0  0  0  0  0  0  0  0  0  0
    1.3329    0.7345   -2.2486 H   0  0  0  0  0  0  0  0  0  0  0  0
   -1.5718   -2.7480    0.9604 H   0  0  0  0  0  0  0  0  0  0  0  0
   -3.5652   -5.7158   -0.0114 H   0  0  0  0  0  0  0  0  0  0  0  0
   -1.9917   -4.8531   -0.1874 H   0  0  0  0  0  0  0  0  0  0  0  0
   -2.9670   -4.6893    1.3433 H   0  0  0  0  0  0  0  0  0  0  0  0
   -6.5892   -0.1788   -1.4250 H   0  0  0  0  0  0  0  0  0  0  0  0
   -6.9552   -1.4766   -2.6230 H   0  0  0  0  0  0  0  0  0  0  0  0
   -5.6183   -0.3146   -2.9615 H   0  0  0  0  0  0  0  0  0  0  0  0
   -4.3404    0.7370   -1.1775 H   0  0  0  0  0  0  0  0  0  0  0  0
  1  2  1  0
  2  3  1  0
  3  4  1  0
  4  5  2  0
  5  6  1  0
  6  7  2  0
  7  8  1  0
  8  9  1  0
  9 10  2  0
 10 11  1  0
 11 12  2  0
 12 13  1  0
 13 14  1  0
 14 15  1  0
 13 16  2  0
 16 17  1  0
 17 18  2  0
 18 19  1  0
 19 20  2  0
 20 21  1  0
 21 22  1  0
 22 23  1  0
  7 24  1  0
 24 25  2  0
 25 26  1  0
 26 27  1  0
 27 28  1  0
 26 29  2  0
 29 30  1  0
 30 31  1  0
 29 32  1  0
 32 33  2  0
 33  4  1  0
 20  9  1  0
 33 24  1  0
 18 11  1  0
  1 34  1  0
  1 35  1  0
  1 36  1  0
  2 37  1  0
  2 38  1  0
  3 39  1  0
  3 40  1  0
  6 41  1  0
  8 42  1  0
  8 43  1  0
 10 44  1  0
 12 45  1  0
 15 46  1  0
 15 47  1  0
 15 48  1  0
 16 49  1  0
 17 50  1  0
 21 51  1  0
 22 52  1  0
 22 53  1  0
 23 54  1  0
 23 55  1  0
 23 56  1  0
 25 57  1  0
 28 58  1  0
 28 59  1  0
 28 60  1  0
 31 61  1  0
 31 62  1  0
 31 63  1  0
 32 64  1  0
M  END
$$$$

     RDKit          3D

 48 51  0  0  0  0  0  0  0  0999 V2000
    5.0666   -2.8892   -1.8586 C   0  0  0  0  0  0  0  0  0  0  0  0
    4.6780   -1.9717   -0.7921 N   0  0  0  0  0  0  0  0  0  0  0  0
    3.4178   -2.0491   -0.1105 C   0  0  0  0  0  0  0  0  0  0  0  0
    2.5153   -2.8204   -0.5339 O   0  0  0  0  0  0  0  0  0  0  0  0
    3.1590   -1.2141    1.0805 C   0  0  0  0  0  0  0  0  0  0  0  0
    1.9955   -0.5216    1.3705 C   0  0  0  0  0  0  0  0  0  0  0  0
    0.8032   -0.4638    0.5679 N   0  0  0  0  0  0  0  0  0  0  0  0
   -0.2307    0.5245    0.7262 C   0  0  0  0  0  0  0  0  0  0  0  0
   -0.0185    1.5509    1.4262 O   0  0  0  0  0  0  0  0  0  0  0  0
   -1.5191    0.3731    0.0060 C   0  0  0  0  0  0  0  0  0  0  0  0
   -1.5665   -0.4645   -1.0646 N   0  0  0  0  0  0  0  0  0  0  0  0
   -2.6969   -0.6327   -1.8022 C   0  0  0  0  0  0  0  0  0  0  0  0
   -2.7325   -1.5683   -2.9817 C   0  0  0  0  0  0  0  0  0  0  0  0
   -1.9799   -2.8785   -2.7976 C   0  0  0  0  0  0  0  0  0  0  0  0
   -1.4118   -1.7967   -3.7046 C   0  0  0  0  0  0  0  0  0  0  0  0
   -3.8212    0.0482   -1.4670 N   0  0  0  0  0  0  0  0  0  0  0  0
   -3.8378    0.8959   -0.4081 C   0  0  0  0  0  0  0  0  0  0  0  0
   -2.6835    1.0891    0.3629 C   0  0  0  0  0  0  0  0  0  0  0  0
   -2.7344    1.9112    1.5409 N   0  0  0  0  0  0  0  0  0  0  0  0
   -3.3428    3.2139    1.5821 C   0  0  0  0  0  0  0  0  0  0  0  0
   -3.5144    3.9926    0.4274 C   0  0  0  0  0  0  0  0  0  0  0  0
   -4.0716    5.2279    0.5174 N   0  0  0  0  0  0  0  0  0  0  0  0
   -4.4637    5.7321    1.7156 C   0  0  0  0  0  0  0  0  0  0  0  0
   -4.2924    5.0043    2.8490 N   0  0  0  0  0  0  0  0  0  0  0  0
   -3.7377    3.7653    2.8060 C   0  0  0  0  0  0  0  0  0  0  0  0
    2.2251    0.0898    2.5914 C   0  0  0  0  0  0  0  0  0  0  0  0
    3.4678   -0.2218    3.0092 N   0  0  0  0  0  0  0  0  0  0  0  0
    4.0242   -1.0094    2.1004 N   0  0  0  0  0  0  0  0  0  0  0  0
    5.3693   -1.5568    2.2468 C   0  0  0  0  0  0  0  0  0  0  0  0
    5.2160   -2.3190   -2.7990 H   0  0  0  0  0  0  0  0  0  0  0  0
    6.0191   -3.3884   -1.5839 H   0  0  0  0  0  0  0  0  0  0  0  0
    4.2962   -3.6696   -2.0306 H   0  0  0  0  0  0  0  0  0  0  0  0
    5.3426   -1.2043   -0.5488 H   0  0  0  0  0  0  0  0  0  0  0  0
    0.6939   -1.1704   -0.1909 H   0  0  0  0  0  0  0  0  0  0  0  0
   -3.6443   -1.6296   -3.6137 H   0  0  0  0  0  0  0  0  0  0  0  0
   -1.4225   -3.0047   -1.8445 H   0  0  0  0  0  0  0  0  0  0  0  0
   -2.4133   -3.7405   -3.3474 H   0  0  0  0  0  0  0  0  0  0  0  0
   -0.5157   -1.2872   -3.2905 H   0  0  0  0  0  0  0  0  0  0  0  0
   -1.5126   -2.0240   -4.7869 H   0  0  0  0  0  0  0  0  0  0  0  0
   -4.7593    1.4019   -0.1515 H   0  0  0  0  0  0  0  0  0  0  0  0
   -2.3521    1.5144    2.4291 H   0  0  0  0  0  0  0  0  0  0  0  0
   -3.1939    3.6303   -0.5398 H   0  0  0  0  0  0  0  0  0  0  0  0
   -4.9068    6.7170    1.7681 H   0  0  0  0  0  0  0  0  0  0  0  0
   -3.6107    3.2074    3.7246 H   0  0  0  0  0  0  0  0  0  0  0  0
    1.5380    0.7006    3.1591 H   0  0  0  0  0  0  0  0  0  0  0  0
    5.6496   -1.5903    3.3209 H   0  0  0  0  0  0  0  0  0  0  0  0
    6.0962   -0.9127    1.7103 H   0  0  0  0  0  0  0  0  0  0  0  0
    5.4128   -2.5911    1.8449 H   0  0  0  0  0  0  0  0  0  0  0  0
  1  2  1  0
  2  3  1  0
  3  4  2  0
  3  5  1  0
  5  6  2  0
  6  7  1  0
  7  8  1  0
  8  9  2  0
  8 10  1  0
 10 11  2  0
 11 12  1  0
 12 13  1  0
 13 14  1  0
 14 15  1  0
 12 16  2  0
 16 17  1  0
 17 18  2  0
 18 19  1  0
 19 20  1  0
 20 21  2  0
 21 22  1  0
 22 23  2  0
 23 24  1  0
 24 25  2  0
  6 26  1  0
 26 27  2  0
 27 28  1  0
 28 29  1  0
 28  5  1  0
 18 10  1  0
 25 20  1  0
 15 13  1  0
  1 30  1  0
  1 31  1  0
  1 32  1  0
  2 33  1  0
  7 34  1  0
 13 35  1  0
 14 36  1  0
 14 37  1  0
 15 38  1  0
 15 39  1  0
 17 40  1  0
 19 41  1  0
 21 42  1  0
 23 43  1  0
 25 44  1  0
 26 45  1  0
 29 46  1  0
 29 47  1  0
 29 48  1  0
M  END
$$$$

     RDKit          3D

 51 54  0  0  0  0  0  0  0  0999 V2000
    7.7664   -0.9311   -1.8610 C   0  0  0  0  0  0  0  0  0  0  0  0
    6.8979   -0.9396   -0.6811 N   0  0  0  0  0  0  0  0  0  0  0  0
    7.4905   -1.1815    0.6347 C   0  0  0  0  0  0  0  0  0  0  0  0
    5.4800   -0.7155   -0.7892 C   0  0  0  0  0  0  0  0  0  0  0  0
    4.8430   -0.4849   -1.9692 N   0  0  0  0  0  0  0  0  0  0  0  0
    3.5715   -0.3431   -1.5545 C   0  0  0  0  0  0  0  0  0  0  0  0
    2.4585   -0.1020   -2.3526 C   0  0  0  0  0  0  0  0  0  0  0  0
    1.2125   -0.0002   -1.7123 C   0  0  0  0  0  0  0  0  0  0  0  0
    1.1103   -0.1236   -0.3071 C   0  0  0  0  0  0  0  0  0  0  0  0
   -0.1814   -0.0423    0.3172 N   0  0  0  0  0  0  0  0  0  0  0  0
   -0.4222    0.5605    1.6005 C   0  0  0  0  0  0  0  0  0  0  0  0
    0.5222    1.0879    2.2470 O   0  0  0  0  0  0  0  0  0  0  0  0
   -1.7828    0.5763    2.1754 C   0  0  0  0  0  0  0  0  0  0  0  0
   -2.9743    0.8001    1.5008 C   0  0  0  0  0  0  0  0  0  0  0  0
   -3.1681    1.2419    0.1045 C   0  0  0  0  0  0  0  0  0  0  0  0
   -2.2898    1.9727   -0.4287 O   0  0  0  0  0  0  0  0  0  0  0  0
   -4.3377    0.8690   -0.6515 N   0  0  0  0  0  0  0  0  0  0  0  0
   -5.0835   -0.3578   -0.3503 C   0  0  0  0  0  0  0  0  0  0  0  0
   -5.6138   -0.9705   -1.6498 C   0  0  0  0  0  0  0  0  0  0  0  0
   -6.3365   -0.0119   -2.3989 O   0  0  0  0  0  0  0  0  0  0  0  0
   -5.4646    1.0180   -2.8253 C   0  0  0  0  0  0  0  0  0  0  0  0
   -4.9160    1.7991   -1.6270 C   0  0  0  0  0  0  0  0  0  0  0  0
   -3.9550    0.6973    2.4721 C   0  0  0  0  0  0  0  0  0  0  0  0
   -3.3833    0.4216    3.6603 N   0  0  0  0  0  0  0  0  0  0  0  0
   -2.0748    0.3448    3.4742 N   0  0  0  0  0  0  0  0  0  0  0  0
   -1.1300    0.0632    4.5499 C   0  0  0  0  0  0  0  0  0  0  0  0
    2.2799   -0.3884    0.4377 C   0  0  0  0  0  0  0  0  0  0  0  0
    3.4565   -0.4782   -0.2301 N   0  0  0  0  0  0  0  0  0  0  0  0
    4.6471   -0.7166    0.2810 N   0  0  0  0  0  0  0  0  0  0  0  0
    8.2705   -1.9156   -1.9594 H   0  0  0  0  0  0  0  0  0  0  0  0
    7.1978   -0.7369   -2.7937 H   0  0  0  0  0  0  0  0  0  0  0  0
    8.5359   -0.1381   -1.7514 H   0  0  0  0  0  0  0  0  0  0  0  0
    8.5883   -1.3355    0.5569 H   0  0  0  0  0  0  0  0  0  0  0  0
    7.0399   -2.0896    1.0880 H   0  0  0  0  0  0  0  0  0  0  0  0
    7.3045   -0.3092    1.2963 H   0  0  0  0  0  0  0  0  0  0  0  0
    2.5468   -0.0017   -3.4267 H   0  0  0  0  0  0  0  0  0  0  0  0
    0.3256    0.1830   -2.3055 H   0  0  0  0  0  0  0  0  0  0  0  0
   -0.9998   -0.3923   -0.2292 H   0  0  0  0  0  0  0  0  0  0  0  0
   -4.4310   -1.1033    0.1542 H   0  0  0  0  0  0  0  0  0  0  0  0
   -5.9389   -0.1150    0.3156 H   0  0  0  0  0  0  0  0  0  0  0  0
   -4.7774   -1.4009   -2.2470 H   0  0  0  0  0  0  0  0  0  0  0  0
   -6.2966   -1.8084   -1.3956 H   0  0  0  0  0  0  0  0  0  0  0  0
   -4.6289    0.6092   -3.4384 H   0  0  0  0  0  0  0  0  0  0  0  0
   -6.0335    1.7161   -3.4749 H   0  0  0  0  0  0  0  0  0  0  0  0
   -4.1594    2.5274   -1.9900 H   0  0  0  0  0  0  0  0  0  0  0  0
   -5.7415    2.3645   -1.1434 H   0  0  0  0  0  0  0  0  0  0  0  0
   -5.0151    0.8622    2.3369 H   0  0  0  0  0  0  0  0  0  0  0  0
   -0.5628    0.9840    4.7998 H   0  0  0  0  0  0  0  0  0  0  0  0
   -1.6726   -0.2806    5.4560 H   0  0  0  0  0  0  0  0  0  0  0  0
   -0.4249   -0.7354    4.2365 H   0  0  0  0  0  0  0  0  0  0  0  0
    2.2503   -0.5488    1.5072 H   0  0  0  0  0  0  0  0  0  0  0  0
  1  2  1  0
  2  3  1  0
  2  4  1  0
  4  5  1  0
  5  6  2  0
  6  7  1  0
  7  8  2  0
  8  9  1  0
  9 10  1  0
 10 11  1  0
 11 12  2  0
 11 13  1  0
 13 14  2  0
 14 15  1  0
 15 16  2  0
 15 17  1  0
 17 18  1  0
 18 19  1  0
 19 20  1  0
 20 21  1  0
 21 22  1  0
 14 23  1  0
 23 24  2  0
 24 25  1  0
 25 26  1  0
  9 27  2  0
 27 28  1  0
 28 29  1  0
 29  4  2  0
 28  6  1  0
 25 13  1  0
 22 17  1  0
  1 30  1  0
  1 31  1  0
  1 32  1  0
  3 33  1  0
  3 34  1  0
  3 35  1  0
  7 36  1  0
  8 37  1  0
 10 38  1  0
 18 39  1  0
 18 40  1  0
 19 41  1  0
 19 42  1  0
 21 43  1  0
 21 44  1  0
 22 45  1  0
 22 46  1  0
 23 47  1  0
 26 48  1  0
 26 49  1  0
 26 50  1  0
 27 51  1  0
M  END
$$$$

     RDKit          3D

 47 50  0  0  0  0  0  0  0  0999 V2000
    6.8388    2.0369    0.7895 C   0  0  0  0  0  0  0  0  0  0  0  0
    5.5758    1.7238    1.4626 N   0  0  0  0  0  0  0  0  0  0  0  0
    5.4199    2.0691    2.8760 C   0  0  0  0  0  0  0  0  0  0  0  0
    4.4896    1.0867    0.7650 C   0  0  0  0  0  0  0  0  0  0  0  0
    4.5448    0.7298   -0.5468 N   0  0  0  0  0  0  0  0  0  0  0  0
    3.3252    0.1901   -0.7206 C   0  0  0  0  0  0  0  0  0  0  0  0
    2.8208   -0.3654   -1.8916 C   0  0  0  0  0  0  0  0  0  0  0  0
    1.5171   -0.8864   -1.8519 C   0  0  0  0  0  0  0  0  0  0  0  0
    0.7519   -0.8287   -0.6635 C   0  0  0  0  0  0  0  0  0  0  0  0
   -0.5710   -1.3897   -0.6428 N   0  0  0  0  0  0  0  0  0  0  0  0
   -1.6311   -0.9081    0.1963 C   0  0  0  0  0  0  0  0  0  0  0  0
   -1.5714    0.2497    0.6921 O   0  0  0  0  0  0  0  0  0  0  0  0
   -2.8314   -1.7342    0.4331 C   0  0  0  0  0  0  0  0  0  0  0  0
   -4.1273   -1.2737    0.6048 C   0  0  0  0  0  0  0  0  0  0  0  0
   -4.6524    0.0915    0.4527 C   0  0  0  0  0  0  0  0  0  0  0  0
   -5.4971    0.5248    1.2801 O   0  0  0  0  0  0  0  0  0  0  0  0
   -4.2707    0.9117   -0.6530 N   0  0  0  0  0  0  0  0  0  0  0  0
   -3.6284    0.7576   -1.9727 C   0  0  0  0  0  0  0  0  0  0  0  0
   -3.9009    2.1468   -2.4450 C   0  0  0  0  0  0  0  0  0  0  0  0
   -4.5473    2.2860   -1.1069 C   0  0  0  0  0  0  0  0  0  0  0  0
   -4.8610   -2.3888    0.9610 C   0  0  0  0  0  0  0  0  0  0  0  0
   -4.0509   -3.4644    0.9934 N   0  0  0  0  0  0  0  0  0  0  0  0
   -2.8274   -3.0641    0.6818 N   0  0  0  0  0  0  0  0  0  0  0  0
   -1.6784   -3.9643    0.6730 C   0  0  0  0  0  0  0  0  0  0  0  0
    1.3355   -0.2660    0.4923 C   0  0  0  0  0  0  0  0  0  0  0  0
    2.5972    0.2214    0.3993 N   0  0  0  0  0  0  0  0  0  0  0  0
    3.3081    0.7814    1.3566 N   0  0  0  0  0  0  0  0  0  0  0  0
    7.6730    1.5098    1.2989 H   0  0  0  0  0  0  0  0  0  0  0  0
    7.0216    3.1314    0.8309 H   0  0  0  0  0  0  0  0  0  0  0  0
    6.8300    1.7260   -0.2755 H   0  0  0  0  0  0  0  0  0  0  0  0
    4.5706    2.7740    2.9986 H   0  0  0  0  0  0  0  0  0  0  0  0
    6.3381    2.5530    3.2733 H   0  0  0  0  0  0  0  0  0  0  0  0
    5.2234    1.1499    3.4674 H   0  0  0  0  0  0  0  0  0  0  0  0
    3.4109   -0.3995   -2.7983 H   0  0  0  0  0  0  0  0  0  0  0  0
    1.0969   -1.3284   -2.7465 H   0  0  0  0  0  0  0  0  0  0  0  0
   -0.8091   -2.1138   -1.3575 H   0  0  0  0  0  0  0  0  0  0  0  0
   -4.1531   -0.0115   -2.5821 H   0  0  0  0  0  0  0  0  0  0  0  0
   -2.5405    0.5557   -1.8801 H   0  0  0  0  0  0  0  0  0  0  0  0
   -2.9813    2.7622   -2.5534 H   0  0  0  0  0  0  0  0  0  0  0  0
   -4.6239    2.1895   -3.2884 H   0  0  0  0  0  0  0  0  0  0  0  0
   -4.0344    3.0292   -0.4567 H   0  0  0  0  0  0  0  0  0  0  0  0
   -5.6428    2.4677   -1.1799 H   0  0  0  0  0  0  0  0  0  0  0  0
   -5.9213   -2.4187    1.1746 H   0  0  0  0  0  0  0  0  0  0  0  0
   -0.8114   -3.4863    1.1761 H   0  0  0  0  0  0  0  0  0  0  0  0
   -1.4126   -4.2231   -0.3726 H   0  0  0  0  0  0  0  0  0  0  0  0
   -1.9238   -4.9005    1.2178 H   0  0  0  0  0  0  0  0  0  0  0  0
    0.8118   -0.2398    1.4389 H   0  0  0  0  0  0  0  0  0  0  0  0
  1  2  1  0
  2  3  1  0
  2  4  1  0
  4  5  1  0
  5  6  2  0
  6  7  1  0
  7  8  2  0
  8  9  1  0
  9 10  1  0
 10 11  1  0
 11 12  2  0
 11 13  1  0
 13 14  2  0
 14 15  1  0
 15 16  2  0
 15 17  1  0
 17 18  1  0
 18 19  1  0
 19 20  1  0
 14 21  1  0
 21 22  2  0
 22 23  1  0
 23 24  1  0
  9 25  2  0
 25 26  1  0
 26 27  1  0
 27  4  2  0
 26  6  1  0
 23 13  1  0
 20 17  1  0
  1 28  1  0
  1 29  1  0
  1 30  1  0
  3 31  1  0
  3 32  1  0
  3 33  1  0
  7 34  1  0
  8 35  1  0
 10 36  1  0
 18 37  1  0
 18 38  1  0
 19 39  1  0
 19 40  1  0
 20 41  1  0
 20 42  1  0
 21 43  1  0
 24 44  1  0
 24 45  1  0
 24 46  1  0
 25 47  1  0
M  END
$$$$

     RDKit          3D

 66 70  0  0  0  0  0  0  0  0999 V2000
    9.7436    2.0772   -1.0682 C   0  0  0  0  0  0  0  0  0  0  0  0
    8.6505    1.8997   -2.1226 C   0  0  0  0  0  0  0  0  0  0  0  0
    7.3287    1.8379   -1.4962 N   0  0  0  0  0  0  0  0  0  0  0  0
    6.7987    0.6918   -0.8035 C   0  0  0  0  0  0  0  0  0  0  0  0
    7.5090   -0.5222   -0.7075 C   0  0  0  0  0  0  0  0  0  0  0  0
    6.9659   -1.5889    0.0142 C   0  0  0  0  0  0  0  0  0  0  0  0
    5.7151   -1.4549    0.6228 C   0  0  0  0  0  0  0  0  0  0  0  0
    5.1563   -2.4978    1.3768 C   0  0  0  0  0  0  0  0  0  0  0  0
    3.8970   -2.3361    1.9604 C   0  0  0  0  0  0  0  0  0  0  0  0
    3.1748   -1.1459    1.7764 C   0  0  0  0  0  0  0  0  0  0  0  0
    1.8073   -1.0250    2.3142 C   0  0  0  0  0  0  0  0  0  0  0  0
    1.6088   -1.2790    3.5356 O   0  0  0  0  0  0  0  0  0  0  0  0
    0.6965   -0.6608    1.4644 N   0  0  0  0  0  0  0  0  0  0  0  0
    0.7521   -0.8974    0.0134 C   0  0  0  0  0  0  0  0  0  0  0  0
   -0.5879   -1.4603   -0.4619 C   0  0  0  0  0  0  0  0  0  0  0  0
   -1.7683   -0.4770   -0.2017 C   0  0  0  0  0  0  0  0  0  0  0  0
   -1.4825    0.4405    1.0279 C   0  0  0  0  0  0  0  0  0  0  0  0
   -0.5601   -0.2073    2.0735 C   0  0  0  0  0  0  0  0  0  0  0  0
   -3.0630   -1.3235    0.0557 C   0  0  0  0  0  0  0  0  0  0  0  0
   -4.2984   -0.5000   -0.1428 C   0  0  0  0  0  0  0  0  0  0  0  0
   -5.5616   -0.6204    0.3915 C   0  0  0  0  0  0  0  0  0  0  0  0
   -6.3282    0.3706   -0.1366 N   0  0  0  0  0  0  0  0  0  0  0  0
   -7.7536    0.6543    0.1323 C   0  0  0  0  0  0  0  0  0  0  0  0
   -8.3442   -0.3056    1.1877 C   0  0  0  0  0  0  0  0  0  0  0  0
   -7.8889    2.0994    0.6492 C   0  0  0  0  0  0  0  0  0  0  0  0
   -8.5503    0.5010   -1.1791 C   0  0  0  0  0  0  0  0  0  0  0  0
   -5.5970    1.0962   -0.9846 N   0  0  0  0  0  0  0  0  0  0  0  0
   -4.3631    0.5665   -0.9834 C   0  0  0  0  0  0  0  0  0  0  0  0
   -3.1878    1.0241   -1.7016 C   0  0  0  0  0  0  0  0  0  0  0  0
   -3.2617    1.9306   -2.5735 O   0  0  0  0  0  0  0  0  0  0  0  0
   -1.9357    0.3911   -1.3940 N   0  0  0  0  0  0  0  0  0  0  0  0
    3.7348   -0.1037    1.0283 C   0  0  0  0  0  0  0  0  0  0  0  0
    5.0087   -0.2428    0.4668 C   0  0  0  0  0  0  0  0  0  0  0  0
    5.5675    0.7865   -0.2289 N   0  0  0  0  0  0  0  0  0  0  0  0
    9.7242    1.2463   -0.3321 H   0  0  0  0  0  0  0  0  0  0  0  0
   10.7387    2.0876   -1.5603 H   0  0  0  0  0  0  0  0  0  0  0  0
    9.6017    3.0396   -0.5292 H   0  0  0  0  0  0  0  0  0  0  0  0
    8.6800    2.7756   -2.8096 H   0  0  0  0  0  0  0  0  0  0  0  0
    8.8322    0.9917   -2.7347 H   0  0  0  0  0  0  0  0  0  0  0  0
    6.7243    2.6872   -1.5640 H   0  0  0  0  0  0  0  0  0  0  0  0
    8.4786   -0.6490   -1.1687 H   0  0  0  0  0  0  0  0  0  0  0  0
    7.5206   -2.5154    0.0970 H   0  0  0  0  0  0  0  0  0  0  0  0
    5.6903   -3.4343    1.5091 H   0  0  0  0  0  0  0  0  0  0  0  0
    3.4738   -3.1470    2.5331 H   0  0  0  0  0  0  0  0  0  0  0  0
    0.9875    0.0533   -0.5115 H   0  0  0  0  0  0  0  0  0  0  0  0
    1.5377   -1.6399   -0.2350 H   0  0  0  0  0  0  0  0  0  0  0  0
   -0.5231   -1.7191   -1.5394 H   0  0  0  0  0  0  0  0  0  0  0  0
   -0.7530   -2.4142    0.0870 H   0  0  0  0  0  0  0  0  0  0  0  0
   -2.4263    0.7523    1.5230 H   0  0  0  0  0  0  0  0  0  0  0  0
   -0.9867    1.3756    0.6883 H   0  0  0  0  0  0  0  0  0  0  0  0
   -0.3459    0.5415    2.8644 H   0  0  0  0  0  0  0  0  0  0  0  0
   -1.0740   -1.0735    2.5436 H   0  0  0  0  0  0  0  0  0  0  0  0
   -3.1124   -2.1655   -0.6675 H   0  0  0  0  0  0  0  0  0  0  0  0
   -3.0542   -1.7554    1.0786 H   0  0  0  0  0  0  0  0  0  0  0  0
   -5.8821   -1.3699    1.1051 H   0  0  0  0  0  0  0  0  0  0  0  0
   -7.7836   -0.2333    2.1444 H   0  0  0  0  0  0  0  0  0  0  0  0
   -9.4083   -0.0551    1.3942 H   0  0  0  0  0  0  0  0  0  0  0  0
   -8.2958   -1.3567    0.8274 H   0  0  0  0  0  0  0  0  0  0  0  0
   -8.9512    2.3444    0.8729 H   0  0  0  0  0  0  0  0  0  0  0  0
   -7.2953    2.2355    1.5798 H   0  0  0  0  0  0  0  0  0  0  0  0
   -7.5131    2.8224   -0.1049 H   0  0  0  0  0  0  0  0  0  0  0  0
   -8.1851    1.2188   -1.9436 H   0  0  0  0  0  0  0  0  0  0  0  0
   -8.4382   -0.5258   -1.5868 H   0  0  0  0  0  0  0  0  0  0  0  0
   -9.6313    0.6890   -1.0110 H   0  0  0  0  0  0  0  0  0  0  0  0
   -1.0950    0.6628   -1.9537 H   0  0  0  0  0  0  0  0  0  0  0  0
    3.1820    0.8121    0.8854 H   0  0  0  0  0  0  0  0  0  0  0  0
  1  2  1  0
  2  3  1  0
  3  4  1  0
  4  5  2  0
  5  6  1  0
  6  7  2  0
  7  8  1  0
  8  9  2  0
  9 10  1  0
 10 11  1  0
 11 12  2  0
 11 13  1  0
 13 14  1  0
 14 15  1  0
 15 16  1  0
 16 17  1  0
 17 18  1  0
 16 19  1  0
 19 20  1  0
 20 21  2  0
 21 22  1  0
 22 23  1  0
 23 24  1  0
 23 25  1  0
 23 26  1  0
 22 27  1  0
 27 28  2  0
 28 29  1  0
 29 30  2  0
 29 31  1  0
 10 32  2  0
 32 33  1  0
 33 34  2  0
 34  4  1  0
 33  7  1  0
 18 13  1  0
 28 20  1  0
 31 16  1  0
  1 35  1  0
  1 36  1  0
  1 37  1  0
  2 38  1  0
  2 39  1  0
  3 40  1  0
  5 41  1  0
  6 42  1  0
  8 43  1  0
  9 44  1  0
 14 45  1  0
 14 46  1  0
 15 47  1  0
 15 48  1  0
 17 49  1  0
 17 50  1  0
 18 51  1  0
 18 52  1  0
 19 53  1  0
 19 54  1  0
 21 55  1  0
 24 56  1  0
 24 57  1  0
 24 58  1  0
 25 59  1  0
 25 60  1  0
 25 61  1  0
 26 62  1  0
 26 63  1  0
 26 64  1  0
 31 65  1  0
 32 66  1  0
M  END
$$$$

     RDKit          3D

 52 54  0  0  0  0  0  0  0  0999 V2000
   -4.8720   -0.0205    2.8278 C   0  0  0  0  0  0  0  0  0  0  0  0
   -3.6842    0.7508    3.3964 C   0  0  0  0  0  0  0  0  0  0  0  0
   -2.4434    0.3921    2.6887 N   0  0  0  0  0  0  0  0  0  0  0  0
   -1.4783   -0.4978    3.3466 C   0  0  0  0  0  0  0  0  0  0  0  0
   -2.1419    0.8723    1.3542 C   0  0  0  0  0  0  0  0  0  0  0  0
   -2.9358    1.8268    0.6966 C   0  0  0  0  0  0  0  0  0  0  0  0
   -2.5868    2.2469   -0.5453 N   0  0  0  0  0  0  0  0  0  0  0  0
   -1.4942    1.7623   -1.1948 C   0  0  0  0  0  0  0  0  0  0  0  0
   -1.1283    2.3162   -2.4696 N   0  0  0  0  0  0  0  0  0  0  0  0
   -2.0846    2.8073   -3.4246 C   0  0  0  0  0  0  0  0  0  0  0  0
   -3.3930    2.3048   -3.4940 C   0  0  0  0  0  0  0  0  0  0  0  0
   -4.2554    2.7812   -4.4289 N   0  0  0  0  0  0  0  0  0  0  0  0
   -3.8707    3.7388   -5.3113 C   0  0  0  0  0  0  0  0  0  0  0  0
   -2.6042    4.2272   -5.2760 N   0  0  0  0  0  0  0  0  0  0  0  0
   -1.7078    3.7780   -4.3598 C   0  0  0  0  0  0  0  0  0  0  0  0
   -0.6940    0.7950   -0.5483 C   0  0  0  0  0  0  0  0  0  0  0  0
    0.4844    0.1622   -1.1860 C   0  0  0  0  0  0  0  0  0  0  0  0
    0.5635    0.1031   -2.4427 O   0  0  0  0  0  0  0  0  0  0  0  0
    1.4980   -0.4526   -0.3722 N   0  0  0  0  0  0  0  0  0  0  0  0
    2.7376   -0.9642   -0.8875 C   0  0  0  0  0  0  0  0  0  0  0  0
    3.3944   -0.5781   -2.0422 C   0  0  0  0  0  0  0  0  0  0  0  0
    4.5761   -1.2231   -2.1069 N   0  0  0  0  0  0  0  0  0  0  0  0
    4.6862   -1.9939   -1.0342 N   0  0  0  0  0  0  0  0  0  0  0  0
    5.8388   -2.8580   -0.7994 C   0  0  0  0  0  0  0  0  0  0  0  0
    3.5931   -1.8438   -0.2506 C   0  0  0  0  0  0  0  0  0  0  0  0
    3.3358   -2.5385    1.0276 C   0  0  0  0  0  0  0  0  0  0  0  0
    2.1688   -2.9392    1.2874 O   0  0  0  0  0  0  0  0  0  0  0  0
    4.3867   -2.7344    1.9825 N   0  0  0  0  0  0  0  0  0  0  0  0
    4.1901   -3.5376    3.1826 C   0  0  0  0  0  0  0  0  0  0  0  0
   -1.0473    0.3933    0.7021 N   0  0  0  0  0  0  0  0  0  0  0  0
   -5.0223    0.2165    1.7546 H   0  0  0  0  0  0  0  0  0  0  0  0
   -4.6993   -1.1123    2.9353 H   0  0  0  0  0  0  0  0  0  0  0  0
   -5.7936    0.2522    3.3837 H   0  0  0  0  0  0  0  0  0  0  0  0
   -3.6055    0.5115    4.4789 H   0  0  0  0  0  0  0  0  0  0  0  0
   -3.8616    1.8450    3.3443 H   0  0  0  0  0  0  0  0  0  0  0  0
   -0.5060    0.0257    3.4643 H   0  0  0  0  0  0  0  0  0  0  0  0
   -1.8260   -0.8180    4.3511 H   0  0  0  0  0  0  0  0  0  0  0  0
   -1.3302   -1.4111    2.7322 H   0  0  0  0  0  0  0  0  0  0  0  0
   -3.8158    2.2530    1.1530 H   0  0  0  0  0  0  0  0  0  0  0  0
   -0.1148    2.4847   -2.6606 H   0  0  0  0  0  0  0  0  0  0  0  0
   -3.7248    1.5238   -2.8236 H   0  0  0  0  0  0  0  0  0  0  0  0
   -4.5713    4.1075   -6.0477 H   0  0  0  0  0  0  0  0  0  0  0  0
   -0.7042    4.1829   -4.3550 H   0  0  0  0  0  0  0  0  0  0  0  0
    1.3269   -0.5446    0.6537 H   0  0  0  0  0  0  0  0  0  0  0  0
    3.0628    0.1461   -2.7729 H   0  0  0  0  0  0  0  0  0  0  0  0
    6.3209   -3.1157   -1.7661 H   0  0  0  0  0  0  0  0  0  0  0  0
    5.5225   -3.8026   -0.3090 H   0  0  0  0  0  0  0  0  0  0  0  0
    6.5795   -2.3301   -0.1640 H   0  0  0  0  0  0  0  0  0  0  0  0
    5.3047   -2.2558    1.8488 H   0  0  0  0  0  0  0  0  0  0  0  0
    5.1207   -3.5450    3.7885 H   0  0  0  0  0  0  0  0  0  0  0  0
    3.3679   -3.1090    3.7935 H   0  0  0  0  0  0  0  0  0  0  0  0
    3.9380   -4.5810    2.8987 H   0  0  0  0  0  0  0  0  0  0  0  0
  1  2  1  0
  2  3  1  0
  3  4  1  0
  3  5  1  0
  5  6  2  0
  6  7  1  0
  7  8  2  0
  8  9  1  0
  9 10  1  0
 10 11  2  0
 11 12  1  0
 12 13  2  0
 13 14  1  0
 14 15  2  0
  8 16  1  0
 16 17  1  0
 17 18  2  0
 17 19  1  0
 19 20  1  0
 20 21  1  0
 21 22  2  0
 22 23  1  0
 23 24  1  0
 23 25  1  0
 25 26  1  0
 26 27  2  0
 26 28  1  0
 28 29  1  0
 16 30  2  0
 30  5  1  0
 15 10  1  0
 25 20  2  0
  1 31  1  0
  1 32  1  0
  1 33  1  0
  2 34  1  0
  2 35  1  0
  4 36  1  0
  4 37  1  0
  4 38  1  0
  6 39  1  0
  9 40  1  0
 11 41  1  0
 13 42  1  0
 15 43  1  0
 19 44  1  0
 21 45  1  0
 24 46  1  0
 24 47  1  0
 24 48  1  0
 28 49  1  0
 29 50  1  0
 29 51  1  0
 29 52  1  0
M  END
$$$$

     RDKit          3D

 58 62  0  0  0  0  0  0  0  0999 V2000
    8.4923    2.2169   -0.0901 C   0  0  0  0  0  0  0  0  0  0  0  0
    7.0924    2.2547   -0.2520 O   0  0  0  0  0  0  0  0  0  0  0  0
    6.5082    1.0761    0.2743 C   0  0  0  0  0  0  0  0  0  0  0  0
    6.1292    1.2519    1.7501 C   0  0  0  0  0  0  0  0  0  0  0  0
    4.8198    0.4949    1.9389 C   0  0  0  0  0  0  0  0  0  0  0  0
    4.2872    0.3199    0.5955 N   0  0  0  0  0  0  0  0  0  0  0  0
    3.0451   -0.3378    0.3214 C   0  0  0  0  0  0  0  0  0  0  0  0
    2.6018   -0.5895   -0.9390 N   0  0  0  0  0  0  0  0  0  0  0  0
    1.4522   -1.2350   -0.6766 C   0  0  0  0  0  0  0  0  0  0  0  0
    0.5726   -1.7686   -1.6118 C   0  0  0  0  0  0  0  0  0  0  0  0
   -0.5662   -2.4295   -1.1247 C   0  0  0  0  0  0  0  0  0  0  0  0
   -0.8120   -2.5132    0.2710 C   0  0  0  0  0  0  0  0  0  0  0  0
   -1.9899   -3.1545    0.7866 N   0  0  0  0  0  0  0  0  0  0  0  0
   -3.2999   -3.0225    0.2141 C   0  0  0  0  0  0  0  0  0  0  0  0
   -4.2279   -3.7695    0.6190 O   0  0  0  0  0  0  0  0  0  0  0  0
   -3.6035   -1.9971   -0.7997 C   0  0  0  0  0  0  0  0  0  0  0  0
   -3.5466   -0.6241   -0.6358 C   0  0  0  0  0  0  0  0  0  0  0  0
   -3.3214    0.1409    0.6113 C   0  0  0  0  0  0  0  0  0  0  0  0
   -2.6787   -0.3996    1.5538 O   0  0  0  0  0  0  0  0  0  0  0  0
   -3.8588    1.4719    0.7865 N   0  0  0  0  0  0  0  0  0  0  0  0
   -3.1979    2.3805    1.7354 C   0  0  0  0  0  0  0  0  0  0  0  0
   -5.2085    1.7529    0.2563 C   0  0  0  0  0  0  0  0  0  0  0  0
   -5.2306    2.8514   -0.7905 C   0  0  0  0  0  0  0  0  0  0  0  0
   -5.8421    3.1088    0.5710 C   0  0  0  0  0  0  0  0  0  0  0  0
   -3.8178   -0.1154   -1.8914 C   0  0  0  0  0  0  0  0  0  0  0  0
   -4.0523   -1.1255   -2.7477 N   0  0  0  0  0  0  0  0  0  0  0  0
   -3.9204   -2.2587   -2.0819 N   0  0  0  0  0  0  0  0  0  0  0  0
   -4.1698   -3.5681   -2.6734 C   0  0  0  0  0  0  0  0  0  0  0  0
    0.1407   -1.9800    1.1610 C   0  0  0  0  0  0  0  0  0  0  0  0
    1.2275   -1.3580    0.6373 N   0  0  0  0  0  0  0  0  0  0  0  0
    2.2216   -0.8001    1.2958 N   0  0  0  0  0  0  0  0  0  0  0  0
    5.1932    0.7772   -0.4420 C   0  0  0  0  0  0  0  0  0  0  0  0
    8.9383    1.4222   -0.7275 H   0  0  0  0  0  0  0  0  0  0  0  0
    8.7793    2.0693    0.9758 H   0  0  0  0  0  0  0  0  0  0  0  0
    8.9164    3.1883   -0.4195 H   0  0  0  0  0  0  0  0  0  0  0  0
    7.1619    0.1767    0.1671 H   0  0  0  0  0  0  0  0  0  0  0  0
    5.9675    2.3258    1.9781 H   0  0  0  0  0  0  0  0  0  0  0  0
    6.9217    0.8548    2.4127 H   0  0  0  0  0  0  0  0  0  0  0  0
    5.0072   -0.5055    2.3992 H   0  0  0  0  0  0  0  0  0  0  0  0
    4.1090    1.0828    2.5713 H   0  0  0  0  0  0  0  0  0  0  0  0
    0.7685   -1.6940   -2.6742 H   0  0  0  0  0  0  0  0  0  0  0  0
   -1.2396   -2.8982   -1.8316 H   0  0  0  0  0  0  0  0  0  0  0  0
   -1.9045   -3.6859    1.6819 H   0  0  0  0  0  0  0  0  0  0  0  0
   -3.0581    3.3814    1.2748 H   0  0  0  0  0  0  0  0  0  0  0  0
   -2.1890    2.0093    2.0155 H   0  0  0  0  0  0  0  0  0  0  0  0
   -3.8109    2.4704    2.6574 H   0  0  0  0  0  0  0  0  0  0  0  0
   -5.9054    0.9011    0.0948 H   0  0  0  0  0  0  0  0  0  0  0  0
   -5.9681    2.6876   -1.5939 H   0  0  0  0  0  0  0  0  0  0  0  0
   -4.2612    3.3643   -0.9559 H   0  0  0  0  0  0  0  0  0  0  0  0
   -6.9488    3.1179    0.5507 H   0  0  0  0  0  0  0  0  0  0  0  0
   -5.2833    3.8518    1.1572 H   0  0  0  0  0  0  0  0  0  0  0  0
   -3.8404    0.9234   -2.1717 H   0  0  0  0  0  0  0  0  0  0  0  0
   -4.0652   -3.5192   -3.7787 H   0  0  0  0  0  0  0  0  0  0  0  0
   -3.4468   -4.3118   -2.2807 H   0  0  0  0  0  0  0  0  0  0  0  0
   -5.2055   -3.8950   -2.4263 H   0  0  0  0  0  0  0  0  0  0  0  0
    0.0035   -2.0457    2.2338 H   0  0  0  0  0  0  0  0  0  0  0  0
    5.3414   -0.0144   -1.2079 H   0  0  0  0  0  0  0  0  0  0  0  0
    4.7725    1.6912   -0.9199 H   0  0  0  0  0  0  0  0  0  0  0  0
  1  2  1  0
  2  3  1  0
  3  4  1  0
  4  5  1  0
  5  6  1  0
  6  7  1  0
  7  8  1  0
  8  9  2  0
  9 10  1  0
 10 11  2  0
 11 12  1  0
 12 13  1  0
 13 14  1  0
 14 15  2  0
 14 16  1  0
 16 17  2  0
 17 18  1  0
 18 19  2  0
 18 20  1  0
 20 21  1  0
 20 22  1  0
 22 23  1  0
 23 24  1  0
 17 25  1  0
 25 26  2  0
 26 27  1  0
 27 28  1  0
 12 29  2  0
 29 30  1  0
 30 31  1  0
  6 32  1  0
 32  3  1  0
 31  7  2  0
 30  9  1  0
 27 16  1  0
 24 22  1  0
  1 33  1  0
  1 34  1  0
  1 35  1  0
  3 36  1  0
  4 37  1  0
  4 38  1  0
  5 39  1  0
  5 40  1  0
 10 41  1  0
 11 42  1  0
 13 43  1  0
 21 44  1  0
 21 45  1  0
 21 46  1  0
 22 47  1  0
 23 48  1  0
 23 49  1  0
 24 50  1  0
 24 51  1  0
 25 52  1  0
 28 53  1  0
 28 54  1  0
 28 55  1  0
 29 56  1  0
 32 57  1  0
 32 58  1  0
M  END
$$$$

     RDKit          3D

 54 57  0  0  0  0  0  0  0  0999 V2000
    1.9818   -3.8913   -0.2790 C   0  0  0  0  0  0  0  0  0  0  0  0
    3.1790   -3.7675   -1.2164 C   0  0  0  0  0  0  0  0  0  0  0  0
    3.9147   -2.5248   -0.9506 N   0  0  0  0  0  0  0  0  0  0  0  0
    4.9025   -2.4990    0.1335 C   0  0  0  0  0  0  0  0  0  0  0  0
    3.5318   -1.3043   -1.6205 C   0  0  0  0  0  0  0  0  0  0  0  0
    2.4346   -1.2468   -2.2400 O   0  0  0  0  0  0  0  0  0  0  0  0
    4.3843   -0.1005   -1.5891 C   0  0  0  0  0  0  0  0  0  0  0  0
    5.7372   -0.0435   -1.8714 C   0  0  0  0  0  0  0  0  0  0  0  0
    6.1326    1.2439   -1.9092 N   0  0  0  0  0  0  0  0  0  0  0  0
    5.0759    2.0022   -1.6610 N   0  0  0  0  0  0  0  0  0  0  0  0
    5.1299    3.4598   -1.6261 C   0  0  0  0  0  0  0  0  0  0  0  0
    3.9885    1.2229   -1.4696 C   0  0  0  0  0  0  0  0  0  0  0  0
    2.6283    1.7196   -1.1713 C   0  0  0  0  0  0  0  0  0  0  0  0
    2.2203    2.7687   -1.7377 O   0  0  0  0  0  0  0  0  0  0  0  0
    1.7771    1.0063   -0.2572 N   0  0  0  0  0  0  0  0  0  0  0  0
    0.4204    1.3754    0.0361 C   0  0  0  0  0  0  0  0  0  0  0  0
    0.0361    2.7289    0.2116 C   0  0  0  0  0  0  0  0  0  0  0  0
   -1.2936    3.0584    0.5238 C   0  0  0  0  0  0  0  0  0  0  0  0
   -2.1986    2.0117    0.6654 C   0  0  0  0  0  0  0  0  0  0  0  0
   -3.5058    2.1132    0.9642 N   0  0  0  0  0  0  0  0  0  0  0  0
   -3.8742    0.8032    0.9807 C   0  0  0  0  0  0  0  0  0  0  0  0
   -5.2162    0.3625    1.2596 N   0  0  0  0  0  0  0  0  0  0  0  0
   -6.2968    1.3492    1.3714 C   0  0  0  0  0  0  0  0  0  0  0  0
   -7.4491    0.7823    2.2060 C   0  0  0  0  0  0  0  0  0  0  0  0
   -7.8405   -0.4883    1.7253 O   0  0  0  0  0  0  0  0  0  0  0  0
   -6.7886   -1.4121    1.9225 C   0  0  0  0  0  0  0  0  0  0  0  0
   -5.5741   -1.0471    1.0635 C   0  0  0  0  0  0  0  0  0  0  0  0
   -2.8525   -0.0465    0.7103 N   0  0  0  0  0  0  0  0  0  0  0  0
   -1.8142    0.7407    0.5168 N   0  0  0  0  0  0  0  0  0  0  0  0
   -0.5459    0.3679    0.2171 C   0  0  0  0  0  0  0  0  0  0  0  0
    2.3203   -3.8954    0.7786 H   0  0  0  0  0  0  0  0  0  0  0  0
    1.2833   -3.0416   -0.4332 H   0  0  0  0  0  0  0  0  0  0  0  0
    1.4425   -4.8395   -0.4856 H   0  0  0  0  0  0  0  0  0  0  0  0
    3.8493   -4.6441   -1.0802 H   0  0  0  0  0  0  0  0  0  0  0  0
    2.8280   -3.7917   -2.2710 H   0  0  0  0  0  0  0  0  0  0  0  0
    5.9195   -2.3519   -0.2815 H   0  0  0  0  0  0  0  0  0  0  0  0
    4.6656   -1.6781    0.8433 H   0  0  0  0  0  0  0  0  0  0  0  0
    4.9005   -3.4540    0.7013 H   0  0  0  0  0  0  0  0  0  0  0  0
    6.3852   -0.8810   -2.0910 H   0  0  0  0  0  0  0  0  0  0  0  0
    6.1860    3.8043   -1.6317 H   0  0  0  0  0  0  0  0  0  0  0  0
    4.6410    3.8354   -0.7023 H   0  0  0  0  0  0  0  0  0  0  0  0
    4.6137    3.8749   -2.5169 H   0  0  0  0  0  0  0  0  0  0  0  0
    2.1298    0.1169    0.1617 H   0  0  0  0  0  0  0  0  0  0  0  0
    0.7646    3.5245    0.1376 H   0  0  0  0  0  0  0  0  0  0  0  0
   -1.5986    4.0879    0.6602 H   0  0  0  0  0  0  0  0  0  0  0  0
   -5.9325    2.2783    1.8612 H   0  0  0  0  0  0  0  0  0  0  0  0
   -6.6647    1.6030    0.3540 H   0  0  0  0  0  0  0  0  0  0  0  0
   -7.1647    0.7370    3.2824 H   0  0  0  0  0  0  0  0  0  0  0  0
   -8.3165    1.4711    2.1298 H   0  0  0  0  0  0  0  0  0  0  0  0
   -6.5013   -1.4737    2.9970 H   0  0  0  0  0  0  0  0  0  0  0  0
   -7.1442   -2.4208    1.6248 H   0  0  0  0  0  0  0  0  0  0  0  0
   -4.7299   -1.7109    1.3497 H   0  0  0  0  0  0  0  0  0  0  0  0
   -5.8126   -1.2164   -0.0087 H   0  0  0  0  0  0  0  0  0  0  0  0
   -0.2894   -0.6793    0.1106 H   0  0  0  0  0  0  0  0  0  0  0  0
  1  2  1  0
  2  3  1  0
  3  4  1  0
  3  5  1  0
  5  6  2  0
  5  7  1  0
  7  8  1  0
  8  9  2  0
  9 10  1  0
 10 11  1  0
 10 12  1  0
 12 13  1  0
 13 14  2  0
 13 15  1  0
 15 16  1  0
 16 17  1  0
 17 18  2  0
 18 19  1  0
 19 20  2  0
 20 21  1  0
 21 22  1  0
 22 23  1  0
 23 24  1  0
 24 25  1  0
 25 26  1  0
 26 27  1  0
 21 28  2  0
 28 29  1  0
 29 30  1  0
 12  7  2  0
 30 16  2  0
 29 19  1  0
 27 22  1  0
  1 31  1  0
  1 32  1  0
  1 33  1  0
  2 34  1  0
  2 35  1  0
  4 36  1  0
  4 37  1  0
  4 38  1  0
  8 39  1  0
 11 40  1  0
 11 41  1  0
 11 42  1  0
 15 43  1  0
 17 44  1  0
 18 45  1  0
 23 46  1  0
 23 47  1  0
 24 48  1  0
 24 49  1  0
 26 50  1  0
 26 51  1  0
 27 52  1  0
 27 53  1  0
 30 54  1  0
M  END
$$$$

     RDKit          3D

 53 56  0  0  0  0  0  0  0  0999 V2000
   -6.5020   -1.7461    0.2817 C   0  0  0  0  0  0  0  0  0  0  0  0
   -5.0263   -1.4117    0.4943 C   0  0  0  0  0  0  0  0  0  0  0  0
   -4.3025   -1.3553   -0.7860 N   0  0  0  0  0  0  0  0  0  0  0  0
   -4.0926   -2.5939   -1.5433 C   0  0  0  0  0  0  0  0  0  0  0  0
   -3.6285   -0.1545   -1.2247 C   0  0  0  0  0  0  0  0  0  0  0  0
   -2.6462   -0.2452   -2.0108 O   0  0  0  0  0  0  0  0  0  0  0  0
   -4.0571    1.1918   -0.7935 C   0  0  0  0  0  0  0  0  0  0  0  0
   -5.3569    1.6623   -0.7323 C   0  0  0  0  0  0  0  0  0  0  0  0
   -5.3448    2.9823   -0.4640 N   0  0  0  0  0  0  0  0  0  0  0  0
   -4.0820    3.3637   -0.3533 N   0  0  0  0  0  0  0  0  0  0  0  0
   -3.6852    4.7394   -0.0723 C   0  0  0  0  0  0  0  0  0  0  0  0
   -3.2655    2.3065   -0.5569 C   0  0  0  0  0  0  0  0  0  0  0  0
   -1.7891    2.3579   -0.5163 C   0  0  0  0  0  0  0  0  0  0  0  0
   -1.1966    3.3509   -1.0169 O   0  0  0  0  0  0  0  0  0  0  0  0
   -1.0387    1.2832    0.0756 N   0  0  0  0  0  0  0  0  0  0  0  0
    0.3955    1.2487    0.1531 C   0  0  0  0  0  0  0  0  0  0  0  0
    1.1553    2.4087    0.4492 C   0  0  0  0  0  0  0  0  0  0  0  0
    2.5553    2.3402    0.5439 C   0  0  0  0  0  0  0  0  0  0  0  0
    3.1522    1.0986    0.3528 C   0  0  0  0  0  0  0  0  0  0  0  0
    4.4675    0.8217    0.4067 N   0  0  0  0  0  0  0  0  0  0  0  0
    4.4600   -0.5153    0.1598 C   0  0  0  0  0  0  0  0  0  0  0  0
    5.6515   -1.3093    0.1081 N   0  0  0  0  0  0  0  0  0  0  0  0
    6.9802   -0.7697    0.3265 C   0  0  0  0  0  0  0  0  0  0  0  0
    7.9116   -1.9752    0.3353 C   0  0  0  0  0  0  0  0  0  0  0  0
    7.1180   -3.1257   -0.2831 C   0  0  0  0  0  0  0  0  0  0  0  0
    5.6505   -2.7332   -0.1687 C   0  0  0  0  0  0  0  0  0  0  0  0
    3.2200   -1.0268   -0.0316 N   0  0  0  0  0  0  0  0  0  0  0  0
    2.4188    0.0112    0.0955 N   0  0  0  0  0  0  0  0  0  0  0  0
    1.0671    0.0218   -0.0060 C   0  0  0  0  0  0  0  0  0  0  0  0
   -6.6192   -2.7889   -0.0787 H   0  0  0  0  0  0  0  0  0  0  0  0
   -7.0474   -1.6468    1.2438 H   0  0  0  0  0  0  0  0  0  0  0  0
   -6.9574   -1.0594   -0.4596 H   0  0  0  0  0  0  0  0  0  0  0  0
   -4.5657   -2.1870    1.1442 H   0  0  0  0  0  0  0  0  0  0  0  0
   -4.9498   -0.4508    1.0445 H   0  0  0  0  0  0  0  0  0  0  0  0
   -4.5185   -2.4839   -2.5627 H   0  0  0  0  0  0  0  0  0  0  0  0
   -3.0065   -2.8135   -1.6198 H   0  0  0  0  0  0  0  0  0  0  0  0
   -4.5774   -3.4612   -1.0479 H   0  0  0  0  0  0  0  0  0  0  0  0
   -6.2560    1.0969   -0.9250 H   0  0  0  0  0  0  0  0  0  0  0  0
   -3.2566    5.1992   -0.9872 H   0  0  0  0  0  0  0  0  0  0  0  0
   -2.9313    4.7582    0.7429 H   0  0  0  0  0  0  0  0  0  0  0  0
   -4.5666    5.3343    0.2485 H   0  0  0  0  0  0  0  0  0  0  0  0
   -1.5560    0.4401    0.4110 H   0  0  0  0  0  0  0  0  0  0  0  0
    0.6684    3.3561    0.6355 H   0  0  0  0  0  0  0  0  0  0  0  0
    3.1454    3.2191    0.7695 H   0  0  0  0  0  0  0  0  0  0  0  0
    7.2424   -0.0778   -0.5030 H   0  0  0  0  0  0  0  0  0  0  0  0
    7.0261   -0.2320    1.2984 H   0  0  0  0  0  0  0  0  0  0  0  0
    8.1790   -2.2320    1.3841 H   0  0  0  0  0  0  0  0  0  0  0  0
    8.8418   -1.7719   -0.2383 H   0  0  0  0  0  0  0  0  0  0  0  0
    7.3222   -4.0847    0.2407 H   0  0  0  0  0  0  0  0  0  0  0  0
    7.3934   -3.2306   -1.3557 H   0  0  0  0  0  0  0  0  0  0  0  0
    5.1134   -2.9438   -1.1191 H   0  0  0  0  0  0  0  0  0  0  0  0
    5.1639   -3.2757    0.6706 H   0  0  0  0  0  0  0  0  0  0  0  0
    0.5228   -0.8913   -0.2139 H   0  0  0  0  0  0  0  0  0  0  0  0
  1  2  1  0
  2  3  1  0
  3  4  1  0
  3  5  1  0
  5  6  2  0
  5  7  1  0
  7  8  1  0
  8  9  2  0
  9 10  1  0
 10 11  1  0
 10 12  1  0
 12 13  1  0
 13 14  2  0
 13 15  1  0
 15 16  1  0
 16 17  1  0
 17 18  2  0
 18 19  1  0
 19 20  2  0
 20 21  1  0
 21 22  1  0
 22 23  1  0
 23 24  1  0
 24 25  1  0
 25 26  1  0
 21 27  2  0
 27 28  1  0
 28 29  1  0
 12  7  2  0
 29 16  2  0
 28 19  1  0
 26 22  1  0
  1 30  1  0
  1 31  1  0
  1 32  1  0
  2 33  1  0
  2 34  1  0
  4 35  1  0
  4 36  1  0
  4 37  1  0
  8 38  1  0
 11 39  1  0
 11 40  1  0
 11 41  1  0
 15 42  1  0
 17 43  1  0
 18 44  1  0
 23 45  1  0
 23 46  1  0
 24 47  1  0
 24 48  1  0
 25 49  1  0
 25 50  1  0
 26 51  1  0
 26 52  1  0
 29 53  1  0
M  END
$$$$

     RDKit          3D

 83 85  0  0  0  0  0  0  0  0999 V2000
    6.1299   -3.9168   -1.7728 C   0  0  0  0  0  0  0  0  0  0  0  0
    6.7424   -2.9733   -1.3404 C   0  0  0  0  0  0  0  0  0  0  0  0
    7.4818   -1.8213   -0.8134 C   0  0  0  0  0  0  0  0  0  0  0  0
    6.5541   -0.7587   -0.4387 N   0  0  0  0  0  0  0  0  0  0  0  0
    5.6529   -0.8833    0.6719 C   0  0  0  0  0  0  0  0  0  0  0  0
    5.7045   -1.8977    1.4187 O   0  0  0  0  0  0  0  0  0  0  0  0
    4.6800    0.2264    0.9842 C   0  0  2  0  0  0  0  0  0  0  0  0
    5.1843    1.0640    2.1761 C   0  0  0  0  0  0  0  0  0  0  0  0
    6.5035    1.7314    1.8743 C   0  0  0  0  0  0  0  0  0  0  0  0
    6.5643    2.7997    0.9635 C   0  0  0  0  0  0  0  0  0  0  0  0
    7.7905    3.4014    0.6641 C   0  0  0  0  0  0  0  0  0  0  0  0
    8.9627    2.9414    1.2706 C   0  0  0  0  0  0  0  0  0  0  0  0
    8.9100    1.8829    2.1816 C   0  0  0  0  0  0  0  0  0  0  0  0
    7.6857    1.2810    2.4868 C   0  0  0  0  0  0  0  0  0  0  0  0
    3.3609   -0.3412    1.2812 N   0  0  0  0  0  0  0  0  0  0  0  0
    2.5626   -0.9779    0.2732 C   0  0  0  0  0  0  0  0  0  0  0  0
    2.9847   -1.0607   -0.9154 O   0  0  0  0  0  0  0  0  0  0  0  0
    1.2016   -1.5177    0.6109 C   0  0  0  0  0  0  0  0  0  0  0  0
    0.0955   -0.7827   -0.1800 C   0  0  2  0  0  0  0  0  0  0  0  0
    0.2665    0.6108   -0.0666 O   0  0  0  0  0  0  0  0  0  0  0  0
   -1.3344   -1.1750    0.2807 C   0  0  2  0  0  0  0  0  0  0  0  0
   -1.6858   -2.6680    0.0701 C   0  0  0  0  0  0  0  0  0  0  0  0
   -1.7747   -3.0767   -1.3818 C   0  0  0  0  0  0  0  0  0  0  0  0
   -0.6535   -3.6003   -2.0489 C   0  0  0  0  0  0  0  0  0  0  0  0
   -0.7479   -3.9933   -3.3871 C   0  0  0  0  0  0  0  0  0  0  0  0
   -1.9632   -3.8784   -4.0673 C   0  0  0  0  0  0  0  0  0  0  0  0
   -3.0870   -3.3741   -3.4078 C   0  0  0  0  0  0  0  0  0  0  0  0
   -2.9974   -2.9813   -2.0691 C   0  0  0  0  0  0  0  0  0  0  0  0
   -2.3175   -0.3296   -0.4081 N   0  0  0  0  0  0  0  0  0  0  0  0
   -3.1982    0.5772    0.2713 C   0  0  0  0  0  0  0  0  0  0  0  0
   -3.1300    0.7113    1.5232 O   0  0  0  0  0  0  0  0  0  0  0  0
   -4.1857    1.4008   -0.5228 C   0  0  1  0  0  0  0  0  0  0  0  0
   -5.4346    1.5553    0.2337 N   0  0  0  0  0  0  0  0  0  0  0  0
   -6.7173    1.1889   -0.3029 C   0  0  0  0  0  0  0  0  0  0  0  0
   -6.8594    1.0508   -1.5498 O   0  0  0  0  0  0  0  0  0  0  0  0
   -7.8912    0.9973    0.5756 C   0  0  0  0  0  0  0  0  0  0  0  0
   -7.7544    0.7624    1.9553 C   0  0  0  0  0  0  0  0  0  0  0  0
   -8.8975    0.5814    2.7373 C   0  0  0  0  0  0  0  0  0  0  0  0
  -10.1607    0.6271    2.1456 C   0  0  0  0  0  0  0  0  0  0  0  0
  -10.2619    0.8470    0.7719 C   0  0  0  0  0  0  0  0  0  0  0  0
   -9.1388    1.0223    0.0260 N   0  0  0  0  0  0  0  0  0  0  0  0
   -3.6219    2.7884   -0.9367 C   0  0  0  0  0  0  0  0  0  0  0  0
   -2.4745    2.6521   -1.9487 C   0  0  0  0  0  0  0  0  0  0  0  0
   -3.1752    3.6508    0.2565 C   0  0  0  0  0  0  0  0  0  0  0  0
    5.5927   -4.7456   -2.1516 H   0  0  0  0  0  0  0  0  0  0  0  0
    8.0833   -2.1284    0.0679 H   0  0  0  0  0  0  0  0  0  0  0  0
    8.1738   -1.4524   -1.6000 H   0  0  0  0  0  0  0  0  0  0  0  0
    6.5717    0.1324   -0.9843 H   0  0  0  0  0  0  0  0  0  0  0  0
    4.5772    0.8987    0.1029 H   0  0  0  0  0  0  0  0  0  0  0  0
    4.4341    1.8474    2.4223 H   0  0  0  0  0  0  0  0  0  0  0  0
    5.2763    0.4119    3.0733 H   0  0  0  0  0  0  0  0  0  0  0  0
    5.6632    3.1644    0.4864 H   0  0  0  0  0  0  0  0  0  0  0  0
    7.8315    4.2235   -0.0389 H   0  0  0  0  0  0  0  0  0  0  0  0
    9.9116    3.4052    1.0356 H   0  0  0  0  0  0  0  0  0  0  0  0
    9.8189    1.5259    2.6488 H   0  0  0  0  0  0  0  0  0  0  0  0
    7.6627    0.4563    3.1880 H   0  0  0  0  0  0  0  0  0  0  0  0
    2.9911   -0.2964    2.2608 H   0  0  0  0  0  0  0  0  0  0  0  0
    1.0144   -1.4154    1.7011 H   0  0  0  0  0  0  0  0  0  0  0  0
    1.1981   -2.5998    0.3712 H   0  0  0  0  0  0  0  0  0  0  0  0
    0.2048   -1.0420   -1.2552 H   0  0  0  0  0  0  0  0  0  0  0  0
    0.1765    0.8466    0.8942 H   0  0  0  0  0  0  0  0  0  0  0  0
   -1.3870   -0.9944    1.3767 H   0  0  0  0  0  0  0  0  0  0  0  0
   -2.6650   -2.8654    0.5587 H   0  0  0  0  0  0  0  0  0  0  0  0
   -0.9634   -3.3188    0.6054 H   0  0  0  0  0  0  0  0  0  0  0  0
    0.2928   -3.7051   -1.5363 H   0  0  0  0  0  0  0  0  0  0  0  0
    0.1210   -4.3879   -3.8971 H   0  0  0  0  0  0  0  0  0  0  0  0
   -2.0340   -4.1829   -5.1036 H   0  0  0  0  0  0  0  0  0  0  0  0
   -4.0292   -3.2886   -3.9329 H   0  0  0  0  0  0  0  0  0  0  0  0
   -3.8784   -2.5948   -1.5708 H   0  0  0  0  0  0  0  0  0  0  0  0
   -2.3422   -0.3516   -1.4525 H   0  0  0  0  0  0  0  0  0  0  0  0
   -4.4035    0.8369   -1.4560 H   0  0  0  0  0  0  0  0  0  0  0  0
   -5.3904    1.9718    1.1903 H   0  0  0  0  0  0  0  0  0  0  0  0
   -6.7817    0.6959    2.4256 H   0  0  0  0  0  0  0  0  0  0  0  0
   -8.8043    0.3989    3.8008 H   0  0  0  0  0  0  0  0  0  0  0  0
  -11.0509    0.4853    2.7458 H   0  0  0  0  0  0  0  0  0  0  0  0
  -11.2331    0.8794    0.2968 H   0  0  0  0  0  0  0  0  0  0  0  0
   -4.4415    3.3365   -1.4523 H   0  0  0  0  0  0  0  0  0  0  0  0
   -1.5868    2.1791   -1.4789 H   0  0  0  0  0  0  0  0  0  0  0  0
   -2.7936    2.0361   -2.8160 H   0  0  0  0  0  0  0  0  0  0  0  0
   -2.1808    3.6540   -2.3285 H   0  0  0  0  0  0  0  0  0  0  0  0
   -2.8398    4.6473   -0.1032 H   0  0  0  0  0  0  0  0  0  0  0  0
   -4.0149    3.8161    0.9624 H   0  0  0  0  0  0  0  0  0  0  0  0
   -2.3308    3.1760    0.7975 H   0  0  0  0  0  0  0  0  0  0  0  0
  1  2  3  0
  2  3  1  0
  3  4  1  0
  4  5  1  0
  5  6  2  0
  5  7  1  0
  7  8  1  0
  8  9  1  0
  9 10  2  0
 10 11  1  0
 11 12  2  0
 12 13  1  0
 13 14  2  0
  7 15  1  0
 15 16  1  0
 16 17  2  0
 16 18  1  0
 18 19  1  0
 19 20  1  0
 19 21  1  0
 21 22  1  0
 22 23  1  0
 23 24  2  0
 24 25  1  0
 25 26  2  0
 26 27  1  0
 27 28  2  0
 21 29  1  0
 29 30  1  0
 30 31  2  0
 30 32  1  0
 32 33  1  0
 33 34  1  0
 34 35  2  0
 34 36  1  0
 36 37  2  0
 37 38  1  0
 38 39  2  0
 39 40  1  0
 40 41  2  0
 32 42  1  0
 42 43  1  0
 42 44  1  0
 14  9  1  0
 28 23  1  0
 41 36  1  0
  1 45  1  0
  3 46  1  0
  3 47  1  0
  4 48  1  0
  7 49  1  6
  8 50  1  0
  8 51  1  0
 10 52  1  0
 11 53  1  0
 12 54  1  0
 13 55  1  0
 14 56  1  0
 15 57  1  0
 18 58  1  0
 18 59  1  0
 19 60  1  6
 20 61  1  0
 21 62  1  1
 22 63  1  0
 22 64  1  0
 24 65  1  0
 25 66  1  0
 26 67  1  0
 27 68  1  0
 28 69  1  0
 29 70  1  0
 32 71  1  6
 33 72  1  0
 37 73  1  0
 38 74  1  0
 39 75  1  0
 40 76  1  0
 42 77  1  0
 43 78  1  0
 43 79  1  0
 43 80  1  0
 44 81  1  0
 44 82  1  0
 44 83  1  0
M  END
$$$$

     RDKit          3D

 53 56  0  0  0  0  0  0  0  0999 V2000
    7.8942   -0.6697   -1.4284 C   0  0  0  0  0  0  0  0  0  0  0  0
    6.8605    0.3619   -1.8659 C   0  0  0  0  0  0  0  0  0  0  0  0
    6.0303    0.7814   -0.7271 N   0  0  0  0  0  0  0  0  0  0  0  0
    6.6042    1.6616    0.3007 C   0  0  0  0  0  0  0  0  0  0  0  0
    6.7527    0.9223    1.6289 C   0  0  0  0  0  0  0  0  0  0  0  0
    4.6386    0.4115   -0.6617 C   0  0  0  0  0  0  0  0  0  0  0  0
    4.0768   -0.5346   -1.4628 N   0  0  0  0  0  0  0  0  0  0  0  0
    2.8062   -0.5264   -1.0224 C   0  0  0  0  0  0  0  0  0  0  0  0
    1.7625   -1.3234   -1.4795 C   0  0  0  0  0  0  0  0  0  0  0  0
    0.5079   -1.1628   -0.8678 C   0  0  0  0  0  0  0  0  0  0  0  0
    0.3266   -0.2112    0.1679 C   0  0  0  0  0  0  0  0  0  0  0  0
   -0.9370   -0.0517    0.8338 N   0  0  0  0  0  0  0  0  0  0  0  0
   -2.2073   -0.2877    0.2085 C   0  0  0  0  0  0  0  0  0  0  0  0
   -2.3159   -0.2274   -1.0460 O   0  0  0  0  0  0  0  0  0  0  0  0
   -3.4041   -0.5646    1.0305 C   0  0  0  0  0  0  0  0  0  0  0  0
   -4.7042   -0.1458    0.7755 C   0  0  0  0  0  0  0  0  0  0  0  0
   -5.1801    0.7805   -0.2716 C   0  0  0  0  0  0  0  0  0  0  0  0
   -4.3821    1.6126   -0.7804 O   0  0  0  0  0  0  0  0  0  0  0  0
   -6.5367    0.7590   -0.7216 N   0  0  0  0  0  0  0  0  0  0  0  0
   -7.3301    1.4762   -1.7354 C   0  0  0  0  0  0  0  0  0  0  0  0
   -8.5825    0.6856   -1.5488 C   0  0  0  0  0  0  0  0  0  0  0  0
   -7.7696   -0.0268   -0.5198 C   0  0  0  0  0  0  0  0  0  0  0  0
   -5.4594   -0.7086    1.7906 C   0  0  0  0  0  0  0  0  0  0  0  0
   -4.6606   -1.4299    2.6000 N   0  0  0  0  0  0  0  0  0  0  0  0
   -3.4252   -1.3498    2.1321 N   0  0  0  0  0  0  0  0  0  0  0  0
   -2.2983   -2.0396    2.7526 C   0  0  0  0  0  0  0  0  0  0  0  0
    1.4351    0.5470    0.5913 C   0  0  0  0  0  0  0  0  0  0  0  0
    2.6228    0.3522   -0.0324 N   0  0  0  0  0  0  0  0  0  0  0  0
    3.7641    0.9596    0.2179 N   0  0  0  0  0  0  0  0  0  0  0  0
    8.6091   -0.2206   -0.7072 H   0  0  0  0  0  0  0  0  0  0  0  0
    8.4627   -1.0262   -2.3126 H   0  0  0  0  0  0  0  0  0  0  0  0
    7.3887   -1.5377   -0.9529 H   0  0  0  0  0  0  0  0  0  0  0  0
    7.3739    1.2456   -2.3025 H   0  0  0  0  0  0  0  0  0  0  0  0
    6.2398   -0.0812   -2.6734 H   0  0  0  0  0  0  0  0  0  0  0  0
    7.6073    2.0255   -0.0131 H   0  0  0  0  0  0  0  0  0  0  0  0
    5.9586    2.5557    0.4372 H   0  0  0  0  0  0  0  0  0  0  0  0
    7.3819    0.0166    1.4967 H   0  0  0  0  0  0  0  0  0  0  0  0
    5.7594    0.6189    2.0213 H   0  0  0  0  0  0  0  0  0  0  0  0
    7.2373    1.5887    2.3737 H   0  0  0  0  0  0  0  0  0  0  0  0
    1.9132   -2.0491   -2.2682 H   0  0  0  0  0  0  0  0  0  0  0  0
   -0.3091   -1.7969   -1.1844 H   0  0  0  0  0  0  0  0  0  0  0  0
   -0.9382    0.3390    1.8028 H   0  0  0  0  0  0  0  0  0  0  0  0
   -7.4520    2.5474   -1.4589 H   0  0  0  0  0  0  0  0  0  0  0  0
   -6.8897    1.3459   -2.7491 H   0  0  0  0  0  0  0  0  0  0  0  0
   -9.4172    1.2798   -1.1168 H   0  0  0  0  0  0  0  0  0  0  0  0
   -8.8346    0.0498   -2.4250 H   0  0  0  0  0  0  0  0  0  0  0  0
   -8.1785    0.1200    0.5039 H   0  0  0  0  0  0  0  0  0  0  0  0
   -7.6041   -1.0978   -0.7690 H   0  0  0  0  0  0  0  0  0  0  0  0
   -6.5167   -0.5762    1.9615 H   0  0  0  0  0  0  0  0  0  0  0  0
   -2.6666   -2.8630    3.4010 H   0  0  0  0  0  0  0  0  0  0  0  0
   -1.7218   -1.3273    3.3778 H   0  0  0  0  0  0  0  0  0  0  0  0
   -1.6392   -2.4786    1.9741 H   0  0  0  0  0  0  0  0  0  0  0  0
    1.3463    1.2702    1.3929 H   0  0  0  0  0  0  0  0  0  0  0  0
  1  2  1  0
  2  3  1  0
  3  4  1  0
  4  5  1  0
  3  6  1  0
  6  7  1  0
  7  8  2  0
  8  9  1  0
  9 10  2  0
 10 11  1  0
 11 12  1  0
 12 13  1  0
 13 14  2  0
 13 15  1  0
 15 16  2  0
 16 17  1  0
 17 18  2  0
 17 19  1  0
 19 20  1  0
 20 21  1  0
 21 22  1  0
 16 23  1  0
 23 24  2  0
 24 25  1  0
 25 26  1  0
 11 27  2  0
 27 28  1  0
 28 29  1  0
 29  6  2  0
 28  8  1  0
 25 15  1  0
 22 19  1  0
  1 30  1  0
  1 31  1  0
  1 32  1  0
  2 33  1  0
  2 34  1  0
  4 35  1  0
  4 36  1  0
  5 37  1  0
  5 38  1  0
  5 39  1  0
  9 40  1  0
 10 41  1  0
 12 42  1  0
 20 43  1  0
 20 44  1  0
 21 45  1  0
 21 46  1  0
 22 47  1  0
 22 48  1  0
 23 49  1  0
 26 50  1  0
 26 51  1  0
 26 52  1  0
 27 53  1  0
M  END
$$$$

     RDKit          3D

 55 59  0  0  0  0  0  0  0  0999 V2000
   -5.5128    2.3989    0.7468 C   0  0  0  0  0  0  0  0  0  0  0  0
   -5.4749    0.9397    0.8419 N   0  0  0  0  0  0  0  0  0  0  0  0
   -4.3706    0.2339    0.2477 C   0  0  0  0  0  0  0  0  0  0  0  0
   -3.6389   -0.5021    0.9632 O   0  0  0  0  0  0  0  0  0  0  0  0
   -4.0930    0.3695   -1.1949 C   0  0  0  0  0  0  0  0  0  0  0  0
   -5.0172    0.7106   -2.1669 C   0  0  0  0  0  0  0  0  0  0  0  0
   -4.4435    0.6237   -3.3825 N   0  0  0  0  0  0  0  0  0  0  0  0
   -3.1849    0.2473   -3.2118 N   0  0  0  0  0  0  0  0  0  0  0  0
   -2.2504    0.0575   -4.3163 C   0  0  0  0  0  0  0  0  0  0  0  0
   -2.9291    0.0825   -1.8952 C   0  0  0  0  0  0  0  0  0  0  0  0
   -1.6116   -0.2798   -1.3367 C   0  0  0  0  0  0  0  0  0  0  0  0
   -0.9428   -1.1958   -1.8884 O   0  0  0  0  0  0  0  0  0  0  0  0
   -1.0914    0.4126   -0.1892 N   0  0  0  0  0  0  0  0  0  0  0  0
    0.2158    0.1843    0.3600 C   0  0  0  0  0  0  0  0  0  0  0  0
    0.4028    0.2345    1.7609 C   0  0  0  0  0  0  0  0  0  0  0  0
    1.6775    0.0473    2.3208 C   0  0  0  0  0  0  0  0  0  0  0  0
    2.7370   -0.1693    1.4454 C   0  0  0  0  0  0  0  0  0  0  0  0
    4.0281   -0.3533    1.7748 N   0  0  0  0  0  0  0  0  0  0  0  0
    4.5961   -0.4895    0.5460 C   0  0  0  0  0  0  0  0  0  0  0  0
    6.0056   -0.7047    0.3452 N   0  0  0  0  0  0  0  0  0  0  0  0
    6.5114   -0.9965   -1.0015 C   0  0  0  0  0  0  0  0  0  0  0  0
    7.9938   -0.6279   -1.1051 C   0  0  0  0  0  0  0  0  0  0  0  0
    8.7309   -1.2040   -0.0451 O   0  0  0  0  0  0  0  0  0  0  0  0
    8.3198   -0.6332    1.1813 C   0  0  0  0  0  0  0  0  0  0  0  0
    6.8668   -1.0027    1.4950 C   0  0  0  0  0  0  0  0  0  0  0  0
    3.7055   -0.3922   -0.4719 N   0  0  0  0  0  0  0  0  0  0  0  0
    2.5473   -0.1944    0.1229 N   0  0  0  0  0  0  0  0  0  0  0  0
    1.3395   -0.0226   -0.4687 C   0  0  0  0  0  0  0  0  0  0  0  0
   -6.6412    0.2722    1.4477 C   0  0  0  0  0  0  0  0  0  0  0  0
   -6.3169   -0.4023    2.7703 C   0  0  0  0  0  0  0  0  0  0  0  0
   -6.6329   -1.2500    1.5462 C   0  0  0  0  0  0  0  0  0  0  0  0
   -6.3742    2.7119    0.1201 H   0  0  0  0  0  0  0  0  0  0  0  0
   -4.5795    2.7976    0.2920 H   0  0  0  0  0  0  0  0  0  0  0  0
   -5.6209    2.8369    1.7623 H   0  0  0  0  0  0  0  0  0  0  0  0
   -6.0534    0.9737   -2.0031 H   0  0  0  0  0  0  0  0  0  0  0  0
   -2.0248   -1.0245   -4.4334 H   0  0  0  0  0  0  0  0  0  0  0  0
   -1.3095    0.6153   -4.1174 H   0  0  0  0  0  0  0  0  0  0  0  0
   -2.6942    0.4358   -5.2625 H   0  0  0  0  0  0  0  0  0  0  0  0
   -1.7078    1.0967    0.3043 H   0  0  0  0  0  0  0  0  0  0  0  0
   -0.4433    0.4092    2.4144 H   0  0  0  0  0  0  0  0  0  0  0  0
    1.8296    0.0782    3.3921 H   0  0  0  0  0  0  0  0  0  0  0  0
    5.9501   -0.4190   -1.7669 H   0  0  0  0  0  0  0  0  0  0  0  0
    6.3820   -2.0803   -1.2125 H   0  0  0  0  0  0  0  0  0  0  0  0
    8.3898   -1.0218   -2.0645 H   0  0  0  0  0  0  0  0  0  0  0  0
    8.1209    0.4787   -1.1321 H   0  0  0  0  0  0  0  0  0  0  0  0
    8.9694   -1.0288    1.9905 H   0  0  0  0  0  0  0  0  0  0  0  0
    8.4478    0.4738    1.1744 H   0  0  0  0  0  0  0  0  0  0  0  0
    6.8005   -2.0870    1.7285 H   0  0  0  0  0  0  0  0  0  0  0  0
    6.5440   -0.4260    2.3878 H   0  0  0  0  0  0  0  0  0  0  0  0
    1.2592   -0.0159   -1.5476 H   0  0  0  0  0  0  0  0  0  0  0  0
   -7.6229    0.7914    1.4185 H   0  0  0  0  0  0  0  0  0  0  0  0
   -7.1388   -0.3727    3.5178 H   0  0  0  0  0  0  0  0  0  0  0  0
   -5.2458   -0.4164    3.0639 H   0  0  0  0  0  0  0  0  0  0  0  0
   -7.6432   -1.7105    1.5826 H   0  0  0  0  0  0  0  0  0  0  0  0
   -5.7610   -1.8033    1.1492 H   0  0  0  0  0  0  0  0  0  0  0  0
  1  2  1  0
  2  3  1  0
  3  4  2  0
  3  5  1  0
  5  6  1  0
  6  7  2  0
  7  8  1  0
  8  9  1  0
  8 10  1  0
 10 11  1  0
 11 12  2  0
 11 13  1  0
 13 14  1  0
 14 15  1  0
 15 16  2  0
 16 17  1  0
 17 18  2  0
 18 19  1  0
 19 20  1  0
 20 21  1  0
 21 22  1  0
 22 23  1  0
 23 24  1  0
 24 25  1  0
 19 26  2  0
 26 27  1  0
 27 28  1  0
  2 29  1  0
 29 30  1  0
 30 31  1  0
 10  5  2  0
 28 14  2  0
 31 29  1  0
 27 17  1  0
 25 20  1  0
  1 32  1  0
  1 33  1  0
  1 34  1  0
  6 35  1  0
  9 36  1  0
  9 37  1  0
  9 38  1  0
 13 39  1  0
 15 40  1  0
 16 41  1  0
 21 42  1  0
 21 43  1  0
 22 44  1  0
 22 45  1  0
 24 46  1  0
 24 47  1  0
 25 48  1  0
 25 49  1  0
 28 50  1  0
 29 51  1  0
 30 52  1  0
 30 53  1  0
 31 54  1  0
 31 55  1  0
M  END
$$$$

     RDKit          3D

 59 62  0  0  0  0  0  0  0  0999 V2000
   -4.5004    3.2891   -4.5285 C   0  0  0  0  0  0  0  0  0  0  0  0
   -5.4756    2.6104   -3.6568 N   0  0  0  0  0  0  0  0  0  0  0  0
   -6.7308    2.4063   -4.3979 C   0  0  0  0  0  0  0  0  0  0  0  0
   -4.9479    1.3139   -3.1783 C   0  0  0  0  0  0  0  0  0  0  0  0
   -4.0586    1.5115   -1.9449 C   0  0  0  0  0  0  0  0  0  0  0  0
   -3.6390    0.2227   -1.3943 N   0  0  0  0  0  0  0  0  0  0  0  0
   -2.7988    0.1431   -0.2353 C   0  0  0  0  0  0  0  0  0  0  0  0
   -2.2851    1.1902    0.2435 O   0  0  0  0  0  0  0  0  0  0  0  0
   -2.5023   -1.1604    0.3920 C   0  0  0  0  0  0  0  0  0  0  0  0
   -1.2826   -1.5658    0.9020 C   0  0  0  0  0  0  0  0  0  0  0  0
   -0.0399   -0.8482    0.8221 N   0  0  0  0  0  0  0  0  0  0  0  0
    1.1228   -1.1636    1.6068 C   0  0  0  0  0  0  0  0  0  0  0  0
    1.0297   -1.9612    2.5773 O   0  0  0  0  0  0  0  0  0  0  0  0
    2.4320   -0.5601    1.2606 C   0  0  0  0  0  0  0  0  0  0  0  0
    2.6051   -0.0765    0.0002 N   0  0  0  0  0  0  0  0  0  0  0  0
    3.7812    0.4457   -0.4355 C   0  0  0  0  0  0  0  0  0  0  0  0
    3.8375    0.9505   -1.8624 C   0  0  0  0  0  0  0  0  0  0  0  0
    4.7421    2.1397   -2.1536 C   0  0  0  0  0  0  0  0  0  0  0  0
    5.1423    0.7448   -2.6185 C   0  0  0  0  0  0  0  0  0  0  0  0
    4.8659    0.4765    0.4574 C   0  0  0  0  0  0  0  0  0  0  0  0
    4.7041    0.0105    1.7209 N   0  0  0  0  0  0  0  0  0  0  0  0
    3.5243   -0.5080    2.1568 C   0  0  0  0  0  0  0  0  0  0  0  0
    3.3956   -0.8994    3.5334 N   0  0  0  0  0  0  0  0  0  0  0  0
    4.4811   -1.4443    4.3030 C   0  0  0  0  0  0  0  0  0  0  0  0
    4.4978   -1.2989    5.6946 C   0  0  0  0  0  0  0  0  0  0  0  0
    5.5131   -1.8302    6.4237 N   0  0  0  0  0  0  0  0  0  0  0  0
    6.5173   -2.5197    5.8235 C   0  0  0  0  0  0  0  0  0  0  0  0
    6.5137   -2.6931    4.4767 N   0  0  0  0  0  0  0  0  0  0  0  0
    5.5205   -2.1759    3.7082 C   0  0  0  0  0  0  0  0  0  0  0  0
   -1.4860   -2.8538    1.3655 C   0  0  0  0  0  0  0  0  0  0  0  0
   -2.7764   -3.1893    1.1693 N   0  0  0  0  0  0  0  0  0  0  0  0
   -3.3877   -2.1631    0.5955 N   0  0  0  0  0  0  0  0  0  0  0  0
   -4.8090   -2.1772    0.2624 C   0  0  0  0  0  0  0  0  0  0  0  0
   -4.9007    4.2719   -4.8579 H   0  0  0  0  0  0  0  0  0  0  0  0
   -3.5600    3.4962   -3.9779 H   0  0  0  0  0  0  0  0  0  0  0  0
   -4.2671    2.6782   -5.4288 H   0  0  0  0  0  0  0  0  0  0  0  0
   -6.5837    1.7120   -5.2556 H   0  0  0  0  0  0  0  0  0  0  0  0
   -7.1201    3.3760   -4.7775 H   0  0  0  0  0  0  0  0  0  0  0  0
   -7.5080    1.9899   -3.7216 H   0  0  0  0  0  0  0  0  0  0  0  0
   -5.7836    0.6424   -2.8740 H   0  0  0  0  0  0  0  0  0  0  0  0
   -4.3774    0.7873   -3.9774 H   0  0  0  0  0  0  0  0  0  0  0  0
   -4.6278    2.0709   -1.1710 H   0  0  0  0  0  0  0  0  0  0  0  0
   -3.1552    2.0964   -2.2164 H   0  0  0  0  0  0  0  0  0  0  0  0
   -3.9110   -0.6613   -1.8809 H   0  0  0  0  0  0  0  0  0  0  0  0
    0.0120   -0.0355    0.1685 H   0  0  0  0  0  0  0  0  0  0  0  0
    2.9220    0.8943   -2.4897 H   0  0  0  0  0  0  0  0  0  0  0  0
    4.3841    2.7974   -2.9741 H   0  0  0  0  0  0  0  0  0  0  0  0
    5.3448    2.5360   -1.3115 H   0  0  0  0  0  0  0  0  0  0  0  0
    5.0205    0.5885   -3.7117 H   0  0  0  0  0  0  0  0  0  0  0  0
    5.9891    0.2994   -2.0566 H   0  0  0  0  0  0  0  0  0  0  0  0
    5.8300    0.8714    0.1726 H   0  0  0  0  0  0  0  0  0  0  0  0
    2.5156   -0.6474    4.0372 H   0  0  0  0  0  0  0  0  0  0  0  0
    3.7081   -0.7568    6.1987 H   0  0  0  0  0  0  0  0  0  0  0  0
    7.3173   -2.9363    6.4191 H   0  0  0  0  0  0  0  0  0  0  0  0
    5.5353   -2.3535    2.6413 H   0  0  0  0  0  0  0  0  0  0  0  0
   -0.7486   -3.5237    1.7838 H   0  0  0  0  0  0  0  0  0  0  0  0
   -5.2489   -1.1661    0.3940 H   0  0  0  0  0  0  0  0  0  0  0  0
   -5.3477   -2.8780    0.9348 H   0  0  0  0  0  0  0  0  0  0  0  0
   -4.9448   -2.5160   -0.7856 H   0  0  0  0  0  0  0  0  0  0  0  0
  1  2  1  0
  2  3  1  0
  2  4  1  0
  4  5  1  0
  5  6  1  0
  6  7  1  0
  7  8  2  0
  7  9  1  0
  9 10  2  0
 10 11  1  0
 11 12  1  0
 12 13  2  0
 12 14  1  0
 14 15  2  0
 15 16  1  0
 16 17  1  0
 17 18  1  0
 18 19  1  0
 16 20  2  0
 20 21  1  0
 21 22  2  0
 22 23  1  0
 23 24  1  0
 24 25  2  0
 25 26  1  0
 26 27  2  0
 27 28  1  0
 28 29  2  0
 10 30  1  0
 30 31  2  0
 31 32  1  0
 32 33  1  0
 32  9  1  0
 22 14  1  0
 29 24  1  0
 19 17  1  0
  1 34  1  0
  1 35  1  0
  1 36  1  0
  3 37  1  0
  3 38  1  0
  3 39  1  0
  4 40  1  0
  4 41  1  0
  5 42  1  0
  5 43  1  0
  6 44  1  0
 11 45  1  0
 17 46  1  0
 18 47  1  0
 18 48  1  0
 19 49  1  0
 19 50  1  0
 20 51  1  0
 23 52  1  0
 25 53  1  0
 27 54  1  0
 29 55  1  0
 30 56  1  0
 33 57  1  0
 33 58  1  0
 33 59  1  0
M  END
$$$$

     RDKit          3D

 68 71  0  0  0  0  0  0  0  0999 V2000
    4.7440    5.9794    0.8772 C   0  0  0  0  0  0  0  0  0  0  0  0
    3.5778    5.3017    0.1611 C   0  0  0  0  0  0  0  0  0  0  0  0
    3.6994    3.7744    0.2193 C   0  0  0  0  0  0  0  0  0  0  0  0
    2.5836    3.1339   -0.4825 N   0  0  0  0  0  0  0  0  0  0  0  0
    2.4691    1.7005   -0.5518 C   0  0  0  0  0  0  0  0  0  0  0  0
    3.5189    0.9363   -0.1369 N   0  0  0  0  0  0  0  0  0  0  0  0
    3.5145   -0.4186   -0.2134 C   0  0  0  0  0  0  0  0  0  0  0  0
    4.6162   -1.1509    0.2374 C   0  0  0  0  0  0  0  0  0  0  0  0
    4.6111   -2.5471    0.1576 C   0  0  0  0  0  0  0  0  0  0  0  0
    3.4994   -3.2257   -0.3816 C   0  0  0  0  0  0  0  0  0  0  0  0
    3.4435   -4.6249   -0.4699 O   0  0  0  0  0  0  0  0  0  0  0  0
    4.4562   -5.5005    0.0114 C   0  0  0  0  0  0  0  0  0  0  0  0
    2.4031   -2.4867   -0.8452 C   0  0  0  0  0  0  0  0  0  0  0  0
    2.4034   -1.0857   -0.7600 C   0  0  0  0  0  0  0  0  0  0  0  0
    1.3102   -0.3326   -1.1989 C   0  0  0  0  0  0  0  0  0  0  0  0
    1.3029    1.0711   -1.0610 C   0  0  0  0  0  0  0  0  0  0  0  0
    0.0916    1.8897   -1.4861 C   0  0  0  0  0  0  0  0  0  0  0  0
   -1.2199    1.1092   -1.4922 C   0  0  0  0  0  0  0  0  0  0  0  0
   -1.8505    0.8227   -2.7182 C   0  0  0  0  0  0  0  0  0  0  0  0
   -1.3366    1.2008   -3.8072 O   0  0  0  0  0  0  0  0  0  0  0  0
   -3.0166    0.1284   -2.7495 N   0  0  0  0  0  0  0  0  0  0  0  0
   -3.6388   -0.3189   -1.6228 C   0  0  0  0  0  0  0  0  0  0  0  0
   -4.9349   -1.0863   -1.7896 C   0  0  0  0  0  0  0  0  0  0  0  0
   -4.6734   -2.5969   -1.8126 C   0  0  0  0  0  0  0  0  0  0  0  0
   -5.9777   -3.3835   -1.9121 C   0  0  0  0  0  0  0  0  0  0  0  0
   -3.0356   -0.0958   -0.3564 C   0  0  0  0  0  0  0  0  0  0  0  0
   -3.6045   -0.5886    0.8398 C   0  0  0  0  0  0  0  0  0  0  0  0
   -2.9958   -0.3584    2.0852 C   0  0  0  0  0  0  0  0  0  0  0  0
   -3.5452   -0.8394    3.2866 O   0  0  0  0  0  0  0  0  0  0  0  0
   -4.7414   -1.6081    3.3803 C   0  0  0  0  0  0  0  0  0  0  0  0
   -1.8048    0.3686    2.1495 C   0  0  0  0  0  0  0  0  0  0  0  0
   -1.2137    0.5668    3.4088 O   0  0  0  0  0  0  0  0  0  0  0  0
    0.0216    1.2411    3.6267 C   0  0  0  0  0  0  0  0  0  0  0  0
   -1.2300    0.8696    0.9694 C   0  0  0  0  0  0  0  0  0  0  0  0
   -1.8210    0.6380   -0.2924 C   0  0  0  0  0  0  0  0  0  0  0  0
    4.6302    7.0837    0.8211 H   0  0  0  0  0  0  0  0  0  0  0  0
    4.7667    5.6784    1.9475 H   0  0  0  0  0  0  0  0  0  0  0  0
    5.7049    5.6975    0.3962 H   0  0  0  0  0  0  0  0  0  0  0  0
    2.6256    5.6150    0.6422 H   0  0  0  0  0  0  0  0  0  0  0  0
    3.5647    5.6324   -0.9007 H   0  0  0  0  0  0  0  0  0  0  0  0
    4.6578    3.4591   -0.2514 H   0  0  0  0  0  0  0  0  0  0  0  0
    3.6981    3.4449    1.2825 H   0  0  0  0  0  0  0  0  0  0  0  0
    1.9036    3.7390   -0.9939 H   0  0  0  0  0  0  0  0  0  0  0  0
    5.4758   -0.6414    0.6537 H   0  0  0  0  0  0  0  0  0  0  0  0
    5.4738   -3.0897    0.5186 H   0  0  0  0  0  0  0  0  0  0  0  0
    4.1383   -6.5498   -0.1589 H   0  0  0  0  0  0  0  0  0  0  0  0
    5.4069   -5.3233   -0.5358 H   0  0  0  0  0  0  0  0  0  0  0  0
    4.6093   -5.3461    1.1017 H   0  0  0  0  0  0  0  0  0  0  0  0
    1.5484   -3.0101   -1.2599 H   0  0  0  0  0  0  0  0  0  0  0  0
    0.4597   -0.8476   -1.6284 H   0  0  0  0  0  0  0  0  0  0  0  0
   -0.0564    2.7550   -0.8083 H   0  0  0  0  0  0  0  0  0  0  0  0
    0.3183    2.3231   -2.4820 H   0  0  0  0  0  0  0  0  0  0  0  0
   -3.4458   -0.0684   -3.6828 H   0  0  0  0  0  0  0  0  0  0  0  0
   -5.4218   -0.7931   -2.7450 H   0  0  0  0  0  0  0  0  0  0  0  0
   -5.6616   -0.8140   -0.9969 H   0  0  0  0  0  0  0  0  0  0  0  0
   -4.1372   -2.9081   -0.8907 H   0  0  0  0  0  0  0  0  0  0  0  0
   -4.0334   -2.8467   -2.6868 H   0  0  0  0  0  0  0  0  0  0  0  0
   -6.5286   -3.1028   -2.8354 H   0  0  0  0  0  0  0  0  0  0  0  0
   -5.7567   -4.4709   -1.9476 H   0  0  0  0  0  0  0  0  0  0  0  0
   -6.6175   -3.1811   -1.0266 H   0  0  0  0  0  0  0  0  0  0  0  0
   -4.5131   -1.1672    0.8169 H   0  0  0  0  0  0  0  0  0  0  0  0
   -5.6008   -1.0287    2.9807 H   0  0  0  0  0  0  0  0  0  0  0  0
   -4.9367   -1.8446    4.4470 H   0  0  0  0  0  0  0  0  0  0  0  0
   -4.6261   -2.5618    2.8217 H   0  0  0  0  0  0  0  0  0  0  0  0
    0.2610    1.2186    4.7093 H   0  0  0  0  0  0  0  0  0  0  0  0
   -0.0561    2.2993    3.3012 H   0  0  0  0  0  0  0  0  0  0  0  0
    0.8379    0.7318    3.0734 H   0  0  0  0  0  0  0  0  0  0  0  0
   -0.3149    1.4337    1.0475 H   0  0  0  0  0  0  0  0  0  0  0  0
  1  2  1  0
  2  3  1  0
  3  4  1  0
  4  5  1  0
  5  6  2  0
  6  7  1  0
  7  8  2  0
  8  9  1  0
  9 10  2  0
 10 11  1  0
 11 12  1  0
 10 13  1  0
 13 14  2  0
 14 15  1  0
 15 16  2  0
 16 17  1  0
 17 18  1  0
 18 19  1  0
 19 20  2  0
 19 21  1  0
 21 22  1  0
 22 23  1  0
 23 24  1  0
 24 25  1  0
 22 26  2  0
 26 27  1  0
 27 28  2  0
 28 29  1  0
 29 30  1  0
 28 31  1  0
 31 32  1  0
 32 33  1  0
 31 34  2  0
 34 35  1  0
 16  5  1  0
 35 18  2  0
 14  7  1  0
 35 26  1  0
  1 36  1  0
  1 37  1  0
  1 38  1  0
  2 39  1  0
  2 40  1  0
  3 41  1  0
  3 42  1  0
  4 43  1  0
  8 44  1  0
  9 45  1  0
 12 46  1  0
 12 47  1  0
 12 48  1  0
 13 49  1  0
 15 50  1  0
 17 51  1  0
 17 52  1  0
 21 53  1  0
 23 54  1  0
 23 55  1  0
 24 56  1  0
 24 57  1  0
 25 58  1  0
 25 59  1  0
 25 60  1  0
 27 61  1  0
 30 62  1  0
 30 63  1  0
 30 64  1  0
 33 65  1  0
 33 66  1  0
 33 67  1  0
 34 68  1  0
M  END
$$$$

     RDKit          3D

 54 58  0  0  0  0  0  0  0  0999 V2000
   -5.9261    0.9686    0.9012 C   0  0  0  0  0  0  0  0  0  0  0  0
   -5.3011    0.3845   -0.2917 N   0  0  0  0  0  0  0  0  0  0  0  0
   -4.1527   -0.4823   -0.1818 C   0  0  0  0  0  0  0  0  0  0  0  0
   -3.3357   -0.5567   -1.1390 O   0  0  0  0  0  0  0  0  0  0  0  0
   -3.9343   -1.3368    1.0043 C   0  0  0  0  0  0  0  0  0  0  0  0
   -4.9145   -1.9682    1.7503 C   0  0  0  0  0  0  0  0  0  0  0  0
   -4.3369   -2.7890    2.6488 N   0  0  0  0  0  0  0  0  0  0  0  0
   -3.0247   -2.6988    2.4976 N   0  0  0  0  0  0  0  0  0  0  0  0
   -2.0738   -3.4568    3.3039 C   0  0  0  0  0  0  0  0  0  0  0  0
   -2.7371   -1.8309    1.5025 C   0  0  0  0  0  0  0  0  0  0  0  0
   -1.3736   -1.4778    1.0564 C   0  0  0  0  0  0  0  0  0  0  0  0
   -0.5032   -2.3848    0.9696 O   0  0  0  0  0  0  0  0  0  0  0  0
   -1.0499   -0.1187    0.7155 N   0  0  0  0  0  0  0  0  0  0  0  0
    0.2236    0.3032    0.2014 C   0  0  0  0  0  0  0  0  0  0  0  0
    0.2731    1.3094   -0.7912 C   0  0  0  0  0  0  0  0  0  0  0  0
    1.5038    1.7562   -1.2990 C   0  0  0  0  0  0  0  0  0  0  0  0
    2.6587    1.1839   -0.7764 C   0  0  0  0  0  0  0  0  0  0  0  0
    3.9262    1.4756   -1.1193 N   0  0  0  0  0  0  0  0  0  0  0  0
    4.6147    0.6425   -0.2943 C   0  0  0  0  0  0  0  0  0  0  0  0
    6.0452    0.5670   -0.2734 N   0  0  0  0  0  0  0  0  0  0  0  0
    6.7856   -0.3075    0.6163 C   0  0  0  0  0  0  0  0  0  0  0  0
    8.2523    0.0470    0.4059 C   0  0  0  0  0  0  0  0  0  0  0  0
    8.3115    0.8378   -0.9006 C   0  0  0  0  0  0  0  0  0  0  0  0
    6.8988    1.3536   -1.1435 C   0  0  0  0  0  0  0  0  0  0  0  0
    3.8210   -0.1109    0.5047 N   0  0  0  0  0  0  0  0  0  0  0  0
    2.5968    0.2497    0.1779 N   0  0  0  0  0  0  0  0  0  0  0  0
    1.4366   -0.2170    0.7018 C   0  0  0  0  0  0  0  0  0  0  0  0
   -5.9911    0.4828   -1.5845 C   0  0  0  0  0  0  0  0  0  0  0  0
   -5.1923    1.2150   -2.6551 C   0  0  0  0  0  0  0  0  0  0  0  0
   -6.3917    1.8896   -2.0156 C   0  0  0  0  0  0  0  0  0  0  0  0
   -5.3137    0.7935    1.8101 H   0  0  0  0  0  0  0  0  0  0  0  0
   -6.9340    0.5278    1.0516 H   0  0  0  0  0  0  0  0  0  0  0  0
   -6.0220    2.0668    0.7896 H   0  0  0  0  0  0  0  0  0  0  0  0
   -5.9840   -1.8714    1.6197 H   0  0  0  0  0  0  0  0  0  0  0  0
   -1.6061   -4.2496    2.6839 H   0  0  0  0  0  0  0  0  0  0  0  0
   -2.5936   -3.9334    4.1619 H   0  0  0  0  0  0  0  0  0  0  0  0
   -1.2874   -2.7800    3.6992 H   0  0  0  0  0  0  0  0  0  0  0  0
   -1.8088    0.5976    0.7609 H   0  0  0  0  0  0  0  0  0  0  0  0
   -0.6448    1.7360   -1.1756 H   0  0  0  0  0  0  0  0  0  0  0  0
    1.5505    2.5192   -2.0651 H   0  0  0  0  0  0  0  0  0  0  0  0
    6.5951   -1.3675    0.3407 H   0  0  0  0  0  0  0  0  0  0  0  0
    6.4873   -0.1302    1.6724 H   0  0  0  0  0  0  0  0  0  0  0  0
    8.6048    0.6887    1.2432 H   0  0  0  0  0  0  0  0  0  0  0  0
    8.8854   -0.8654    0.3546 H   0  0  0  0  0  0  0  0  0  0  0  0
    8.6087    0.1591   -1.7304 H   0  0  0  0  0  0  0  0  0  0  0  0
    9.0415    1.6738   -0.8345 H   0  0  0  0  0  0  0  0  0  0  0  0
    6.8213    2.4280   -0.8695 H   0  0  0  0  0  0  0  0  0  0  0  0
    6.6071    1.2109   -2.2067 H   0  0  0  0  0  0  0  0  0  0  0  0
    1.4573   -0.9467    1.5002 H   0  0  0  0  0  0  0  0  0  0  0  0
   -6.6058   -0.3755   -1.9286 H   0  0  0  0  0  0  0  0  0  0  0  0
   -4.2211    1.6502   -2.3351 H   0  0  0  0  0  0  0  0  0  0  0  0
   -5.3757    0.8594   -3.6908 H   0  0  0  0  0  0  0  0  0  0  0  0
   -6.0955    2.7405   -1.3687 H   0  0  0  0  0  0  0  0  0  0  0  0
   -7.2758    1.9375   -2.6854 H   0  0  0  0  0  0  0  0  0  0  0  0
  1  2  1  0
  2  3  1  0
  3  4  2  0
  3  5  1  0
  5  6  1  0
  6  7  2  0
  7  8  1  0
  8  9  1  0
  8 10  1  0
 10 11  1  0
 11 12  2  0
 11 13  1  0
 13 14  1  0
 14 15  1  0
 15 16  2  0
 16 17  1  0
 17 18  2  0
 18 19  1  0
 19 20  1  0
 20 21  1  0
 21 22  1  0
 22 23  1  0
 23 24  1  0
 19 25  2  0
 25 26  1  0
 26 27  1  0
  2 28  1  0
 28 29  1  0
 29 30  1  0
 10  5  2  0
 27 14  2  0
 30 28  1  0
 26 17  1  0
 24 20  1  0
  1 31  1  0
  1 32  1  0
  1 33  1  0
  6 34  1  0
  9 35  1  0
  9 36  1  0
  9 37  1  0
 13 38  1  0
 15 39  1  0
 16 40  1  0
 21 41  1  0
 21 42  1  0
 22 43  1  0
 22 44  1  0
 23 45  1  0
 23 46  1  0
 24 47  1  0
 24 48  1  0
 27 49  1  0
 28 50  1  0
 29 51  1  0
 29 52  1  0
 30 53  1  0
 30 54  1  0
M  END
$$$$

     RDKit          3D

 56 59  0  0  0  0  0  0  0  0999 V2000
   -7.4211   -1.1043   -1.2113 C   0  0  0  0  0  0  0  0  0  0  0  0
   -7.1793   -1.1783    0.2925 C   0  0  0  0  0  0  0  0  0  0  0  0
   -6.4798    0.0249    0.7618 N   0  0  0  0  0  0  0  0  0  0  0  0
   -7.2302    1.0799    1.4553 C   0  0  0  0  0  0  0  0  0  0  0  0
   -7.0011    0.9967    2.9606 C   0  0  0  0  0  0  0  0  0  0  0  0
   -5.0622    0.1683    0.5456 C   0  0  0  0  0  0  0  0  0  0  0  0
   -4.3646    1.2869    0.8827 N   0  0  0  0  0  0  0  0  0  0  0  0
   -3.1218    0.9418    0.5022 C   0  0  0  0  0  0  0  0  0  0  0  0
   -1.9744    1.7212    0.6029 C   0  0  0  0  0  0  0  0  0  0  0  0
   -0.7699    1.1654    0.1403 C   0  0  0  0  0  0  0  0  0  0  0  0
   -0.7398   -0.1491   -0.3911 C   0  0  0  0  0  0  0  0  0  0  0  0
    0.4725   -0.7355   -0.8924 N   0  0  0  0  0  0  0  0  0  0  0  0
    1.7614   -0.5738   -0.2763 C   0  0  0  0  0  0  0  0  0  0  0  0
    1.8900    0.1221    0.7664 O   0  0  0  0  0  0  0  0  0  0  0  0
    2.9568   -1.2233   -0.8507 C   0  0  0  0  0  0  0  0  0  0  0  0
    4.2069   -0.6447   -0.9953 C   0  0  0  0  0  0  0  0  0  0  0  0
    4.5846    0.7617   -0.7584 C   0  0  0  0  0  0  0  0  0  0  0  0
    3.7526    1.6677   -1.0356 O   0  0  0  0  0  0  0  0  0  0  0  0
    5.8719    1.1198   -0.2222 N   0  0  0  0  0  0  0  0  0  0  0  0
    6.3722    2.4846   -0.2384 C   0  0  0  0  0  0  0  0  0  0  0  0
    7.5325    2.5146    0.7475 C   0  0  0  0  0  0  0  0  0  0  0  0
    7.8988    1.0574    1.0121 C   0  0  0  0  0  0  0  0  0  0  0  0
    6.6843    0.2369    0.6000 C   0  0  0  0  0  0  0  0  0  0  0  0
    4.9956   -1.6363   -1.5500 C   0  0  0  0  0  0  0  0  0  0  0  0
    4.2651   -2.7588   -1.6964 N   0  0  0  0  0  0  0  0  0  0  0  0
    3.0402   -2.5102   -1.2590 N   0  0  0  0  0  0  0  0  0  0  0  0
    1.9893   -3.5229   -1.2372 C   0  0  0  0  0  0  0  0  0  0  0  0
   -1.9458   -0.8694   -0.4832 C   0  0  0  0  0  0  0  0  0  0  0  0
   -3.0794   -0.2862   -0.0226 N   0  0  0  0  0  0  0  0  0  0  0  0
   -4.2920   -0.8005   -0.0085 N   0  0  0  0  0  0  0  0  0  0  0  0
   -8.0272   -0.2059   -1.4541 H   0  0  0  0  0  0  0  0  0  0  0  0
   -6.4564   -1.0523   -1.7584 H   0  0  0  0  0  0  0  0  0  0  0  0
   -7.9711   -2.0091   -1.5451 H   0  0  0  0  0  0  0  0  0  0  0  0
   -6.5849   -2.0849    0.5376 H   0  0  0  0  0  0  0  0  0  0  0  0
   -8.1593   -1.2860    0.8072 H   0  0  0  0  0  0  0  0  0  0  0  0
   -8.3194    0.9822    1.2531 H   0  0  0  0  0  0  0  0  0  0  0  0
   -6.9204    2.0790    1.0790 H   0  0  0  0  0  0  0  0  0  0  0  0
   -7.5955    1.7828    3.4723 H   0  0  0  0  0  0  0  0  0  0  0  0
   -5.9274    1.1499    3.1995 H   0  0  0  0  0  0  0  0  0  0  0  0
   -7.3206    0.0023    3.3389 H   0  0  0  0  0  0  0  0  0  0  0  0
   -2.0090    2.7229    1.0118 H   0  0  0  0  0  0  0  0  0  0  0  0
    0.1259    1.7701    0.1717 H   0  0  0  0  0  0  0  0  0  0  0  0
    0.3922   -1.3652   -1.7205 H   0  0  0  0  0  0  0  0  0  0  0  0
    6.7193    2.7395   -1.2627 H   0  0  0  0  0  0  0  0  0  0  0  0
    5.5816    3.1986    0.0798 H   0  0  0  0  0  0  0  0  0  0  0  0
    7.2038    2.9916    1.6969 H   0  0  0  0  0  0  0  0  0  0  0  0
    8.3970    3.0801    0.3371 H   0  0  0  0  0  0  0  0  0  0  0  0
    8.1547    0.8925    2.0813 H   0  0  0  0  0  0  0  0  0  0  0  0
    8.7710    0.7758    0.3819 H   0  0  0  0  0  0  0  0  0  0  0  0
    6.1047   -0.0776    1.4949 H   0  0  0  0  0  0  0  0  0  0  0  0
    7.0104   -0.6552    0.0293 H   0  0  0  0  0  0  0  0  0  0  0  0
    6.0239   -1.5404   -1.8699 H   0  0  0  0  0  0  0  0  0  0  0  0
    1.3188   -3.3699   -0.3653 H   0  0  0  0  0  0  0  0  0  0  0  0
    1.4035   -3.4746   -2.1783 H   0  0  0  0  0  0  0  0  0  0  0  0
    2.4413   -4.5338   -1.1517 H   0  0  0  0  0  0  0  0  0  0  0  0
   -1.9704   -1.8687   -0.9005 H   0  0  0  0  0  0  0  0  0  0  0  0
  1  2  1  0
  2  3  1  0
  3  4  1  0
  4  5  1  0
  3  6  1  0
  6  7  1  0
  7  8  2  0
  8  9  1  0
  9 10  2  0
 10 11  1  0
 11 12  1  0
 12 13  1  0
 13 14  2  0
 13 15  1  0
 15 16  2  0
 16 17  1  0
 17 18  2  0
 17 19  1  0
 19 20  1  0
 20 21  1  0
 21 22  1  0
 22 23  1  0
 16 24  1  0
 24 25  2  0
 25 26  1  0
 26 27  1  0
 11 28  2  0
 28 29  1  0
 29 30  1  0
 30  6  2  0
 29  8  1  0
 26 15  1  0
 23 19  1  0
  1 31  1  0
  1 32  1  0
  1 33  1  0
  2 34  1  0
  2 35  1  0
  4 36  1  0
  4 37  1  0
  5 38  1  0
  5 39  1  0
  5 40  1  0
  9 41  1  0
 10 42  1  0
 12 43  1  0
 20 44  1  0
 20 45  1  0
 21 46  1  0
 21 47  1  0
 22 48  1  0
 22 49  1  0
 23 50  1  0
 23 51  1  0
 24 52  1  0
 27 53  1  0
 27 54  1  0
 27 55  1  0
 28 56  1  0
M  END
$$$$

     RDKit          3D

 35 36  0  0  0  0  0  0  0  0999 V2000
    5.5447    0.0033    0.3938 C   0  0  0  0  0  0  0  0  0  0  0  0
    4.1344   -0.4918    0.2257 C   0  0  0  0  0  0  0  0  0  0  0  0
    3.0568    0.3873    0.4104 C   0  0  0  0  0  0  0  0  0  0  0  0
    1.7282   -0.0423    0.2599 C   0  0  0  0  0  0  0  0  0  0  0  0
    0.4672    1.1830    0.5263 S   0  0  0  0  0  6  0  0  0  0  0  0
    0.5418    1.6253    1.9610 O   0  0  0  0  0  0  0  0  0  0  0  0
    0.8005    2.3816   -0.3185 O   0  0  0  0  0  0  0  0  0  0  0  0
   -1.2061    0.6971    0.1463 C   0  0  0  0  0  0  0  0  0  0  0  0
   -1.7156    0.8613   -1.1693 C   0  0  0  0  0  0  0  0  0  0  0  0
   -0.8643    1.2051   -2.2748 N   0  0  0  0  0  4  0  0  0  0  0  0
    0.2119    0.5983   -2.4521 O   0  0  0  0  0  0  0  0  0  0  0  0
   -1.3350    2.0261   -3.2736 O   0  0  0  0  0  1  0  0  0  0  0  0
   -3.0834    0.6731   -1.4143 C   0  0  0  0  0  0  0  0  0  0  0  0
   -3.9536    0.2710   -0.3944 C   0  0  0  0  0  0  0  0  0  0  0  0
   -5.4299    0.1144   -0.6666 C   0  0  0  0  0  0  0  0  0  0  0  0
   -5.6480   -0.2880   -1.9731 F   0  0  0  0  0  0  0  0  0  0  0  0
   -5.9862   -0.8342    0.1743 F   0  0  0  0  0  0  0  0  0  0  0  0
   -6.0612    1.3262   -0.4578 F   0  0  0  0  0  0  0  0  0  0  0  0
   -3.4470    0.0839    0.8968 C   0  0  0  0  0  0  0  0  0  0  0  0
   -2.0839    0.2649    1.1755 C   0  0  0  0  0  0  0  0  0  0  0  0
   -1.6100   -0.0235    2.5007 N   0  0  0  0  0  4  0  0  0  0  0  0
   -2.3060    0.2759    3.4929 O   0  0  0  0  0  0  0  0  0  0  0  0
   -0.5129   -0.8343    2.6795 O   0  0  0  0  0  1  0  0  0  0  0  0
    1.4833   -1.3958   -0.0812 C   0  0  0  0  0  0  0  0  0  0  0  0
   -0.1206   -2.0807   -0.2988 Cl  0  0  0  0  0  0  0  0  0  0  0  0
    2.5610   -2.2699   -0.2648 C   0  0  0  0  0  0  0  0  0  0  0  0
    3.8777   -1.8305   -0.1153 C   0  0  0  0  0  0  0  0  0  0  0  0
    5.1845   -2.9847   -0.3614 Cl  0  0  0  0  0  0  0  0  0  0  0  0
    6.1048   -0.1316   -0.5554 H   0  0  0  0  0  0  0  0  0  0  0  0
    5.5729    1.0807    0.6626 H   0  0  0  0  0  0  0  0  0  0  0  0
    6.0489   -0.5684    1.2011 H   0  0  0  0  0  0  0  0  0  0  0  0
    3.2518    1.4198    0.6756 H   0  0  0  0  0  0  0  0  0  0  0  0
   -3.4671    0.8254   -2.4156 H   0  0  0  0  0  0  0  0  0  0  0  0
   -4.1130   -0.2238    1.6937 H   0  0  0  0  0  0  0  0  0  0  0  0
    2.3735   -3.3042   -0.5267 H   0  0  0  0  0  0  0  0  0  0  0  0
  1  2  1  0
  2  3  2  0
  3  4  1  0
  4  5  1  0
  5  6  2  0
  5  7  2  0
  5  8  1  0
  8  9  2  0
  9 10  1  0
 10 11  2  0
 10 12  1  0
  9 13  1  0
 13 14  2  0
 14 15  1  0
 15 16  1  0
 15 17  1  0
 15 18  1  0
 14 19  1  0
 19 20  2  0
 20 21  1  0
 21 22  2  0
 21 23  1  0
  4 24  2  0
 24 25  1  0
 24 26  1  0
 26 27  2  0
 27 28  1  0
 27  2  1  0
 20  8  1  0
  1 29  1  0
  1 30  1  0
  1 31  1  0
  3 32  1  0
 13 33  1  0
 19 34  1  0
 26 35  1  0
M  CHG  4  10   1  12  -1  21   1  23  -1
M  END
$$$$

     RDKit          3D

 32 34  0  0  0  0  0  0  0  0999 V2000
    6.0308    1.4766   -0.1836 C   0  0  0  0  0  0  0  0  0  0  0  0
    4.7762    1.0625   -0.3516 C   0  0  0  0  0  0  0  0  0  0  0  0
    4.4135    0.0054   -1.3198 C   0  0  0  0  0  0  0  0  0  0  0  0
    5.2761   -0.4262   -2.1319 O   0  0  0  0  0  0  0  0  0  0  0  0
    3.0702   -0.4942   -1.4055 N   0  0  0  0  0  0  0  0  0  0  0  0
    2.1422   -0.5374   -0.3108 C   0  0  0  0  0  0  0  0  0  0  0  0
    2.5724   -0.7524    1.0073 C   0  0  0  0  0  0  0  0  0  0  0  0
    1.6292   -0.8269    2.0314 C   0  0  0  0  0  0  0  0  0  0  0  0
    0.2707   -0.6997    1.7406 C   0  0  0  0  0  0  0  0  0  0  0  0
   -0.1375   -0.5001    0.4098 C   0  0  0  0  0  0  0  0  0  0  0  0
   -1.5710   -0.3766    0.0413 C   0  0  0  0  0  0  0  0  0  0  0  0
   -2.0009   -0.7415   -1.2653 C   0  0  0  0  0  0  0  0  0  0  0  0
   -3.3131   -0.6284   -1.6308 N   0  0  0  0  0  0  0  0  0  0  0  0
   -4.2100   -0.1562   -0.7325 C   0  0  0  0  0  0  0  0  0  0  0  0
   -5.5245    0.0197   -0.9430 N   0  0  0  0  0  0  0  0  0  0  0  0
   -6.0132    0.5188    0.2168 C   0  0  0  0  0  0  0  0  0  0  0  0
   -4.9936    0.6542    1.1540 C   0  0  0  0  0  0  0  0  0  0  0  0
   -5.1472    1.2619    2.7911 Cl  0  0  0  0  0  0  0  0  0  0  0  0
   -3.8478    0.2159    0.5281 C   0  0  0  0  0  0  0  0  0  0  0  0
   -2.5287    0.1241    0.9567 C   0  0  0  0  0  0  0  0  0  0  0  0
    0.8096   -0.4392   -0.5689 N   0  0  0  0  0  0  0  0  0  0  0  0
    6.8495    1.0470   -0.7470 H   0  0  0  0  0  0  0  0  0  0  0  0
    6.2493    2.2580    0.5327 H   0  0  0  0  0  0  0  0  0  0  0  0
    3.9970    1.5296    0.2372 H   0  0  0  0  0  0  0  0  0  0  0  0
    2.7394   -0.8387   -2.3349 H   0  0  0  0  0  0  0  0  0  0  0  0
    3.6209   -0.8860    1.2389 H   0  0  0  0  0  0  0  0  0  0  0  0
    1.9505   -0.9991    3.0506 H   0  0  0  0  0  0  0  0  0  0  0  0
   -0.4465   -0.7909    2.5450 H   0  0  0  0  0  0  0  0  0  0  0  0
   -1.2923   -1.1252   -1.9877 H   0  0  0  0  0  0  0  0  0  0  0  0
   -6.0586   -0.1817   -1.8172 H   0  0  0  0  0  0  0  0  0  0  0  0
   -7.0528    0.7738    0.3752 H   0  0  0  0  0  0  0  0  0  0  0  0
   -2.2595    0.4531    1.9513 H   0  0  0  0  0  0  0  0  0  0  0  0
  1  2  2  3
  2  3  1  0
  3  4  2  0
  3  5  1  0
  5  6  1  0
  6  7  2  0
  7  8  1  0
  8  9  2  0
  9 10  1  0
 10 11  1  0
 11 12  2  0
 12 13  1  0
 13 14  2  0
 14 15  1  0
 15 16  1  0
 16 17  2  0
 17 18  1  0
 17 19  1  0
 19 20  2  0
 10 21  2  0
 21  6  1  0
 20 11  1  0
 19 14  1  0
  1 22  1  0
  1 23  1  0
  2 24  1  0
  5 25  1  0
  7 26  1  0
  8 27  1  0
  9 28  1  0
 12 29  1  0
 15 30  1  0
 16 31  1  0
 20 32  1  0
M  END
$$$$

     RDKit          3D

 30 32  0  0  0  0  0  0  0  0999 V2000
   -6.4257    2.1200    1.0808 C   0  0  0  0  0  0  0  0  0  0  0  0
   -5.5945    1.2479    1.0434 C   0  0  0  0  0  0  0  0  0  0  0  0
   -4.6027    0.2086    0.9981 C   0  0  0  0  0  0  0  0  0  0  0  0
   -4.8604   -0.9083    1.5202 O   0  0  0  0  0  0  0  0  0  0  0  0
   -3.3213    0.4704    0.4066 N   0  0  0  0  0  0  0  0  0  0  0  0
   -2.3298   -0.5335    0.1389 C   0  0  0  0  0  0  0  0  0  0  0  0
   -2.6835   -1.8404   -0.2319 C   0  0  0  0  0  0  0  0  0  0  0  0
   -1.6803   -2.7667   -0.5151 C   0  0  0  0  0  0  0  0  0  0  0  0
   -0.3392   -2.3906   -0.4378 C   0  0  0  0  0  0  0  0  0  0  0  0
   -0.0092   -1.0727   -0.0767 C   0  0  0  0  0  0  0  0  0  0  0  0
    1.4005   -0.6124    0.0020 C   0  0  0  0  0  0  0  0  0  0  0  0
    2.4620   -1.5101    0.3133 C   0  0  0  0  0  0  0  0  0  0  0  0
    3.7533   -1.0685    0.3910 N   0  0  0  0  0  0  0  0  0  0  0  0
    4.0185    0.2412    0.1698 C   0  0  0  0  0  0  0  0  0  0  0  0
    5.2282    0.8226    0.2103 N   0  0  0  0  0  0  0  0  0  0  0  0
    5.0105    2.1305   -0.0640 C   0  0  0  0  0  0  0  0  0  0  0  0
    3.6549    2.3624   -0.2755 C   0  0  0  0  0  0  0  0  0  0  0  0
    2.8998    3.8976   -0.6574 Cl  0  0  0  0  0  0  0  0  0  0  0  0
    3.0369    1.1414   -0.1210 C   0  0  0  0  0  0  0  0  0  0  0  0
    1.7057    0.7524   -0.2104 C   0  0  0  0  0  0  0  0  0  0  0  0
   -1.0137   -0.1892    0.1858 N   0  0  0  0  0  0  0  0  0  0  0  0
   -7.1554    2.8858    1.1136 H   0  0  0  0  0  0  0  0  0  0  0  0
   -3.0529    1.4680    0.2468 H   0  0  0  0  0  0  0  0  0  0  0  0
   -3.7187   -2.1356   -0.3361 H   0  0  0  0  0  0  0  0  0  0  0  0
   -1.9430   -3.7740   -0.8118 H   0  0  0  0  0  0  0  0  0  0  0  0
    0.4223   -3.1154   -0.6921 H   0  0  0  0  0  0  0  0  0  0  0  0
    2.2632   -2.5525    0.5185 H   0  0  0  0  0  0  0  0  0  0  0  0
    6.1447    0.3649    0.4119 H   0  0  0  0  0  0  0  0  0  0  0  0
    5.7920    2.8777   -0.1077 H   0  0  0  0  0  0  0  0  0  0  0  0
    0.9378    1.4783   -0.4473 H   0  0  0  0  0  0  0  0  0  0  0  0
  1  2  3  0
  2  3  1  0
  3  4  2  0
  3  5  1  0
  5  6  1  0
  6  7  2  0
  7  8  1  0
  8  9  2  0
  9 10  1  0
 10 11  1  0
 11 12  2  0
 12 13  1  0
 13 14  2  0
 14 15  1  0
 15 16  1  0
 16 17  2  0
 17 18  1  0
 17 19  1  0
 19 20  2  0
 10 21  2  0
 21  6  1  0
 20 11  1  0
 19 14  1  0
  1 22  1  0
  5 23  1  0
  7 24  1  0
  8 25  1  0
  9 26  1  0
 12 27  1  0
 15 28  1  0
 16 29  1  0
 20 30  1  0
M  END
$$$$

     RDKit          3D

 57 60  0  0  0  0  0  0  0  0999 V2000
   -5.4067    1.5073    2.4161 C   0  0  0  0  0  0  0  0  0  0  0  0
   -5.8539    0.0640    2.2171 C   0  0  0  0  0  0  0  0  0  0  0  0
   -6.0028   -0.2389    0.7864 N   0  0  0  0  0  0  0  0  0  0  0  0
   -7.3425   -0.3318    0.1877 C   0  0  0  0  0  0  0  0  0  0  0  0
   -7.6322    0.8892   -0.6801 C   0  0  0  0  0  0  0  0  0  0  0  0
   -4.8363   -0.5155   -0.0145 C   0  0  0  0  0  0  0  0  0  0  0  0
   -4.8953   -0.8285   -1.3372 N   0  0  0  0  0  0  0  0  0  0  0  0
   -3.5924   -0.9995   -1.6219 C   0  0  0  0  0  0  0  0  0  0  0  0
   -3.0499   -1.3470   -2.8538 C   0  0  0  0  0  0  0  0  0  0  0  0
   -1.6546   -1.4849   -2.9306 C   0  0  0  0  0  0  0  0  0  0  0  0
   -0.8418   -1.2665   -1.7931 C   0  0  0  0  0  0  0  0  0  0  0  0
    0.5811   -1.4488   -1.8948 N   0  0  0  0  0  0  0  0  0  0  0  0
    1.5412   -0.8077   -1.0415 C   0  0  0  0  0  0  0  0  0  0  0  0
    1.2430    0.2619   -0.4451 O   0  0  0  0  0  0  0  0  0  0  0  0
    2.9044   -1.3624   -0.9003 C   0  0  0  0  0  0  0  0  0  0  0  0
    4.0778   -0.6405   -0.7323 C   0  0  0  0  0  0  0  0  0  0  0  0
    4.2705    0.8237   -0.7900 C   0  0  0  0  0  0  0  0  0  0  0  0
    3.5315    1.5042   -1.5519 O   0  0  0  0  0  0  0  0  0  0  0  0
    5.2893    1.4847   -0.0121 N   0  0  0  0  0  0  0  0  0  0  0  0
    5.9849    2.6574   -0.5528 C   0  0  0  0  0  0  0  0  0  0  0  0
    6.3102    3.6365    0.5797 C   0  0  0  0  0  0  0  0  0  0  0  0
    6.9852    2.9799    1.6361 O   0  0  0  0  0  0  0  0  0  0  0  0
    6.1272    2.0243    2.2295 C   0  0  0  0  0  0  0  0  0  0  0  0
    5.7933    0.9053    1.2384 C   0  0  0  0  0  0  0  0  0  0  0  0
    5.0703   -1.5978   -0.6173 C   0  0  0  0  0  0  0  0  0  0  0  0
    4.5202   -2.8247   -0.6883 N   0  0  0  0  0  0  0  0  0  0  0  0
    3.2136   -2.6788   -0.8464 N   0  0  0  0  0  0  0  0  0  0  0  0
    2.2973   -3.8122   -0.9304 C   0  0  0  0  0  0  0  0  0  0  0  0
   -1.4646   -0.9331   -0.5700 C   0  0  0  0  0  0  0  0  0  0  0  0
   -2.8145   -0.8087   -0.5525 N   0  0  0  0  0  0  0  0  0  0  0  0
   -3.5735   -0.5037    0.4800 N   0  0  0  0  0  0  0  0  0  0  0  0
   -5.2886    1.7140    3.5000 H   0  0  0  0  0  0  0  0  0  0  0  0
   -6.1672    2.2013    2.0024 H   0  0  0  0  0  0  0  0  0  0  0  0
   -4.4347    1.6883    1.9135 H   0  0  0  0  0  0  0  0  0  0  0  0
   -5.1170   -0.6284    2.6788 H   0  0  0  0  0  0  0  0  0  0  0  0
   -6.8137   -0.0828    2.7565 H   0  0  0  0  0  0  0  0  0  0  0  0
   -7.4212   -1.2568   -0.4236 H   0  0  0  0  0  0  0  0  0  0  0  0
   -8.1258   -0.3957    0.9728 H   0  0  0  0  0  0  0  0  0  0  0  0
   -6.9132    0.9508   -1.5235 H   0  0  0  0  0  0  0  0  0  0  0  0
   -7.5613    1.8156   -0.0726 H   0  0  0  0  0  0  0  0  0  0  0  0
   -8.6588    0.8143   -1.0965 H   0  0  0  0  0  0  0  0  0  0  0  0
   -3.6783   -1.5097   -3.7199 H   0  0  0  0  0  0  0  0  0  0  0  0
   -1.2029   -1.7580   -3.8757 H   0  0  0  0  0  0  0  0  0  0  0  0
    0.9471   -2.0159   -2.6922 H   0  0  0  0  0  0  0  0  0  0  0  0
    6.9274    2.3262   -1.0393 H   0  0  0  0  0  0  0  0  0  0  0  0
    5.3651    3.1815   -1.3116 H   0  0  0  0  0  0  0  0  0  0  0  0
    5.3818    4.1327    0.9431 H   0  0  0  0  0  0  0  0  0  0  0  0
    6.9707    4.4349    0.1810 H   0  0  0  0  0  0  0  0  0  0  0  0
    5.1942    2.5006    2.6083 H   0  0  0  0  0  0  0  0  0  0  0  0
    6.6444    1.5807    3.1065 H   0  0  0  0  0  0  0  0  0  0  0  0
    6.7130    0.3189    1.0283 H   0  0  0  0  0  0  0  0  0  0  0  0
    5.0333    0.2370    1.6987 H   0  0  0  0  0  0  0  0  0  0  0  0
    6.1321   -1.4177   -0.5231 H   0  0  0  0  0  0  0  0  0  0  0  0
    2.7686   -4.7150   -0.4875 H   0  0  0  0  0  0  0  0  0  0  0  0
    2.0578   -4.0234   -1.9928 H   0  0  0  0  0  0  0  0  0  0  0  0
    1.3649   -3.5974   -0.3667 H   0  0  0  0  0  0  0  0  0  0  0  0
   -0.8978   -0.8034    0.3424 H   0  0  0  0  0  0  0  0  0  0  0  0
  1  2  1  0
  2  3  1  0
  3  4  1  0
  4  5  1  0
  3  6  1  0
  6  7  1  0
  7  8  2  0
  8  9  1  0
  9 10  2  0
 10 11  1  0
 11 12  1  0
 12 13  1  0
 13 14  2  0
 13 15  1  0
 15 16  2  0
 16 17  1  0
 17 18  2  0
 17 19  1  0
 19 20  1  0
 20 21  1  0
 21 22  1  0
 22 23  1  0
 23 24  1  0
 16 25  1  0
 25 26  2  0
 26 27  1  0
 27 28  1  0
 11 29  2  0
 29 30  1  0
 30 31  1  0
 31  6  2  0
 30  8  1  0
 27 15  1  0
 24 19  1  0
  1 32  1  0
  1 33  1  0
  1 34  1  0
  2 35  1  0
  2 36  1  0
  4 37  1  0
  4 38  1  0
  5 39  1  0
  5 40  1  0
  5 41  1  0
  9 42  1  0
 10 43  1  0
 12 44  1  0
 20 45  1  0
 20 46  1  0
 21 47  1  0
 21 48  1  0
 23 49  1  0
 23 50  1  0
 24 51  1  0
 24 52  1  0
 25 53  1  0
 28 54  1  0
 28 55  1  0
 28 56  1  0
 29 57  1  0
M  END
$$$$

     RDKit          3D

 56 59  0  0  0  0  0  0  0  0999 V2000
   -5.9040    0.5568   -0.5378 C   0  0  0  0  0  0  0  0  0  0  0  0
   -4.4330    0.7951   -0.2056 C   0  0  0  0  0  0  0  0  0  0  0  0
   -4.1367    0.4120    1.1844 N   0  0  0  0  0  0  0  0  0  0  0  0
   -3.7710    1.4458    2.1606 C   0  0  0  0  0  0  0  0  0  0  0  0
   -5.0080    2.1918    2.6494 C   0  0  0  0  0  0  0  0  0  0  0  0
   -4.3303   -0.9447    1.6304 C   0  0  0  0  0  0  0  0  0  0  0  0
   -4.8755   -1.1625    2.7459 O   0  0  0  0  0  0  0  0  0  0  0  0
   -3.9280   -2.0938    0.7997 C   0  0  0  0  0  0  0  0  0  0  0  0
   -4.6188   -3.2831    0.6702 C   0  0  0  0  0  0  0  0  0  0  0  0
   -3.9505   -4.0986   -0.1680 N   0  0  0  0  0  0  0  0  0  0  0  0
   -2.8536   -3.4697   -0.5627 N   0  0  0  0  0  0  0  0  0  0  0  0
   -1.8644   -4.0819   -1.4442 C   0  0  0  0  0  0  0  0  0  0  0  0
   -2.8033   -2.2414    0.0021 C   0  0  0  0  0  0  0  0  0  0  0  0
   -1.6745   -1.2943   -0.1106 C   0  0  0  0  0  0  0  0  0  0  0  0
   -1.3464   -0.6016    0.8903 O   0  0  0  0  0  0  0  0  0  0  0  0
   -0.9997   -1.1144   -1.3643 N   0  0  0  0  0  0  0  0  0  0  0  0
    0.2983   -0.5116   -1.4969 C   0  0  0  0  0  0  0  0  0  0  0  0
    0.6336    0.1698   -2.6903 C   0  0  0  0  0  0  0  0  0  0  0  0
    1.9035    0.7471   -2.8543 C   0  0  0  0  0  0  0  0  0  0  0  0
    2.8108    0.6085   -1.8095 C   0  0  0  0  0  0  0  0  0  0  0  0
    4.0717    1.0755   -1.7725 N   0  0  0  0  0  0  0  0  0  0  0  0
    4.4722    0.6400   -0.5484 C   0  0  0  0  0  0  0  0  0  0  0  0
    5.7803    0.8865   -0.0185 N   0  0  0  0  0  0  0  0  0  0  0  0
    6.2094    0.4342    1.2913 C   0  0  0  0  0  0  0  0  0  0  0  0
    7.5897    1.0442    1.4995 C   0  0  0  0  0  0  0  0  0  0  0  0
    8.0634    1.4963    0.1185 C   0  0  0  0  0  0  0  0  0  0  0  0
    6.8093    1.6125   -0.7384 C   0  0  0  0  0  0  0  0  0  0  0  0
    3.5193   -0.0513    0.1222 N   0  0  0  0  0  0  0  0  0  0  0  0
    2.4856   -0.0534   -0.6946 N   0  0  0  0  0  0  0  0  0  0  0  0
    1.2758   -0.6283   -0.4849 C   0  0  0  0  0  0  0  0  0  0  0  0
   -6.1159    0.9163   -1.5667 H   0  0  0  0  0  0  0  0  0  0  0  0
   -6.5534    1.1077    0.1743 H   0  0  0  0  0  0  0  0  0  0  0  0
   -6.1430   -0.5262   -0.4871 H   0  0  0  0  0  0  0  0  0  0  0  0
   -3.8000    0.2189   -0.9095 H   0  0  0  0  0  0  0  0  0  0  0  0
   -4.2066    1.8713   -0.3691 H   0  0  0  0  0  0  0  0  0  0  0  0
   -3.0606    2.1666    1.7008 H   0  0  0  0  0  0  0  0  0  0  0  0
   -3.2513    0.9871    3.0304 H   0  0  0  0  0  0  0  0  0  0  0  0
   -5.7375    1.4806    3.0908 H   0  0  0  0  0  0  0  0  0  0  0  0
   -4.7149    2.9308    3.4244 H   0  0  0  0  0  0  0  0  0  0  0  0
   -5.4880    2.7335    1.8076 H   0  0  0  0  0  0  0  0  0  0  0  0
   -5.5550   -3.5373    1.1492 H   0  0  0  0  0  0  0  0  0  0  0  0
   -0.8382   -3.8734   -1.0749 H   0  0  0  0  0  0  0  0  0  0  0  0
   -2.0073   -5.1831   -1.4701 H   0  0  0  0  0  0  0  0  0  0  0  0
   -1.9832   -3.6857   -2.4737 H   0  0  0  0  0  0  0  0  0  0  0  0
   -1.5298   -1.3370   -2.2366 H   0  0  0  0  0  0  0  0  0  0  0  0
   -0.0938    0.2577   -3.4873 H   0  0  0  0  0  0  0  0  0  0  0  0
    2.1661    1.2756   -3.7616 H   0  0  0  0  0  0  0  0  0  0  0  0
    5.5033    0.7865    2.0745 H   0  0  0  0  0  0  0  0  0  0  0  0
    6.2656   -0.6759    1.3023 H   0  0  0  0  0  0  0  0  0  0  0  0
    7.5096    1.9275    2.1707 H   0  0  0  0  0  0  0  0  0  0  0  0
    8.2934    0.3092    1.9473 H   0  0  0  0  0  0  0  0  0  0  0  0
    8.6061    2.4648    0.1747 H   0  0  0  0  0  0  0  0  0  0  0  0
    8.7389    0.7245   -0.3120 H   0  0  0  0  0  0  0  0  0  0  0  0
    6.9759    1.1595   -1.7400 H   0  0  0  0  0  0  0  0  0  0  0  0
    6.5069    2.6765   -0.8486 H   0  0  0  0  0  0  0  0  0  0  0  0
    1.0876   -1.1793    0.4272 H   0  0  0  0  0  0  0  0  0  0  0  0
  1  2  1  0
  2  3  1  0
  3  4  1  0
  4  5  1  0
  3  6  1  0
  6  7  2  0
  6  8  1  0
  8  9  1  0
  9 10  2  0
 10 11  1  0
 11 12  1  0
 11 13  1  0
 13 14  1  0
 14 15  2  0
 14 16  1  0
 16 17  1  0
 17 18  1  0
 18 19  2  0
 19 20  1  0
 20 21  2  0
 21 22  1  0
 22 23  1  0
 23 24  1  0
 24 25  1  0
 25 26  1  0
 26 27  1  0
 22 28  2  0
 28 29  1  0
 29 30  1  0
 13  8  2  0
 30 17  2  0
 29 20  1  0
 27 23  1  0
  1 31  1  0
  1 32  1  0
  1 33  1  0
  2 34  1  0
  2 35  1  0
  4 36  1  0
  4 37  1  0
  5 38  1  0
  5 39  1  0
  5 40  1  0
  9 41  1  0
 12 42  1  0
 12 43  1  0
 12 44  1  0
 16 45  1  0
 18 46  1  0
 19 47  1  0
 24 48  1  0
 24 49  1  0
 25 50  1  0
 25 51  1  0
 26 52  1  0
 26 53  1  0
 27 54  1  0
 27 55  1  0
 30 56  1  0
M  END
$$$$

     RDKit          3D

 33 35  0  0  0  0  0  0  0  0999 V2000
    5.1591    3.0067    1.4377 C   0  0  0  0  0  0  0  0  0  0  0  0
    5.2531    1.8105    1.3203 C   0  0  0  0  0  0  0  0  0  0  0  0
    5.3657    0.3814    1.1783 C   0  0  0  0  0  0  0  0  0  0  0  0
    6.5119   -0.1391    1.1755 O   0  0  0  0  0  0  0  0  0  0  0  0
    4.2128   -0.4496    0.9719 N   0  0  0  0  0  0  0  0  0  0  0  0
    2.8582   -0.0490    1.2290 C   0  0  0  0  0  0  0  0  0  0  0  0
    2.5259    0.7458    2.3363 C   0  0  0  0  0  0  0  0  0  0  0  0
    1.1909    1.0765    2.5653 C   0  0  0  0  0  0  0  0  0  0  0  0
    0.1976    0.6087    1.7045 C   0  0  0  0  0  0  0  0  0  0  0  0
    0.5532   -0.2003    0.6107 C   0  0  0  0  0  0  0  0  0  0  0  0
   -0.4646   -0.7415   -0.3258 C   0  0  0  0  0  0  0  0  0  0  0  0
   -0.2078   -1.9511   -1.0297 C   0  0  0  0  0  0  0  0  0  0  0  0
   -1.1264   -2.4660   -1.9007 N   0  0  0  0  0  0  0  0  0  0  0  0
   -2.2912   -1.8042   -2.0998 C   0  0  0  0  0  0  0  0  0  0  0  0
   -3.2891   -2.1857   -2.9130 N   0  0  0  0  0  0  0  0  0  0  0  0
   -4.2432   -1.2334   -2.7884 C   0  0  0  0  0  0  0  0  0  0  0  0
   -3.8293   -0.2444   -1.8981 C   0  0  0  0  0  0  0  0  0  0  0  0
   -4.6163    0.9432   -1.4479 C   0  0  0  0  0  0  0  0  0  0  0  0
   -2.5811   -0.6355   -1.4596 C   0  0  0  0  0  0  0  0  0  0  0  0
   -1.6876   -0.0666   -0.5583 C   0  0  0  0  0  0  0  0  0  0  0  0
    1.8668   -0.5110    0.4192 N   0  0  0  0  0  0  0  0  0  0  0  0
    5.0757    4.0565    1.5410 H   0  0  0  0  0  0  0  0  0  0  0  0
    4.3640   -1.3824    0.5256 H   0  0  0  0  0  0  0  0  0  0  0  0
    3.2831    1.0808    3.0325 H   0  0  0  0  0  0  0  0  0  0  0  0
    0.9235    1.6829    3.4211 H   0  0  0  0  0  0  0  0  0  0  0  0
   -0.8347    0.8512    1.9173 H   0  0  0  0  0  0  0  0  0  0  0  0
    0.7182   -2.4893   -0.8738 H   0  0  0  0  0  0  0  0  0  0  0  0
   -3.3274   -3.0414   -3.5099 H   0  0  0  0  0  0  0  0  0  0  0  0
   -5.1914   -1.2571   -3.3096 H   0  0  0  0  0  0  0  0  0  0  0  0
   -3.9679    1.8441   -1.4405 H   0  0  0  0  0  0  0  0  0  0  0  0
   -5.0053    0.7629   -0.4243 H   0  0  0  0  0  0  0  0  0  0  0  0
   -5.4695    1.1228   -2.1354 H   0  0  0  0  0  0  0  0  0  0  0  0
   -1.9270    0.8736   -0.0801 H   0  0  0  0  0  0  0  0  0  0  0  0
  1  2  3  0
  2  3  1  0
  3  4  2  0
  3  5  1  0
  5  6  1  0
  6  7  2  0
  7  8  1  0
  8  9  2  0
  9 10  1  0
 10 11  1  0
 11 12  2  0
 12 13  1  0
 13 14  2  0
 14 15  1  0
 15 16  1  0
 16 17  2  0
 17 18  1  0
 17 19  1  0
 19 20  2  0
 10 21  2  0
 21  6  1  0
 20 11  1  0
 19 14  1  0
  1 22  1  0
  5 23  1  0
  7 24  1  0
  8 25  1  0
  9 26  1  0
 12 27  1  0
 15 28  1  0
 16 29  1  0
 18 30  1  0
 18 31  1  0
 18 32  1  0
 20 33  1  0
M  END
$$$$

     RDKit          3D

 32 34  0  0  0  0  0  0  0  0999 V2000
    4.6465   -1.1262    0.2668 C   0  0  0  0  0  0  0  0  0  0  0  0
    5.2185    0.0579    0.4774 C   0  0  0  0  0  0  0  0  0  0  0  0
    4.5336    1.1701    1.1662 C   0  0  0  0  0  0  0  0  0  0  0  0
    5.2330    2.0857    1.6742 O   0  0  0  0  0  0  0  0  0  0  0  0
    3.1064    1.2216    1.3149 N   0  0  0  0  0  0  0  0  0  0  0  0
    2.1673    0.9663    0.2577 C   0  0  0  0  0  0  0  0  0  0  0  0
    2.5389    1.0412   -1.0942 C   0  0  0  0  0  0  0  0  0  0  0  0
    1.5819    0.8078   -2.0809 C   0  0  0  0  0  0  0  0  0  0  0  0
    0.2670    0.5098   -1.7228 C   0  0  0  0  0  0  0  0  0  0  0  0
   -0.0838    0.4485   -0.3627 C   0  0  0  0  0  0  0  0  0  0  0  0
   -1.4713    0.1493    0.0749 C   0  0  0  0  0  0  0  0  0  0  0  0
   -1.9374    0.6291    1.3310 C   0  0  0  0  0  0  0  0  0  0  0  0
   -3.2069    0.3590    1.7592 N   0  0  0  0  0  0  0  0  0  0  0  0
   -4.0243   -0.3812    0.9729 C   0  0  0  0  0  0  0  0  0  0  0  0
   -5.2862   -0.7369    1.2544 N   0  0  0  0  0  0  0  0  0  0  0  0
   -5.6952   -1.4748    0.1956 C   0  0  0  0  0  0  0  0  0  0  0  0
   -4.6821   -1.5827   -0.7555 C   0  0  0  0  0  0  0  0  0  0  0  0
   -3.6239   -0.8720   -0.2330 C   0  0  0  0  0  0  0  0  0  0  0  0
   -2.3454   -0.6310   -0.7209 C   0  0  0  0  0  0  0  0  0  0  0  0
    0.8737    0.6891    0.5773 N   0  0  0  0  0  0  0  0  0  0  0  0
    5.2041   -1.9138   -0.2228 H   0  0  0  0  0  0  0  0  0  0  0  0
    3.6362   -1.3361    0.5920 H   0  0  0  0  0  0  0  0  0  0  0  0
    6.2515    0.1933    0.1809 H   0  0  0  0  0  0  0  0  0  0  0  0
    2.7274    1.5564    2.2293 H   0  0  0  0  0  0  0  0  0  0  0  0
    3.5487    1.2964   -1.3861 H   0  0  0  0  0  0  0  0  0  0  0  0
    1.8568    0.8707   -3.1259 H   0  0  0  0  0  0  0  0  0  0  0  0
   -0.4663    0.3615   -2.5038 H   0  0  0  0  0  0  0  0  0  0  0  0
   -1.2925    1.2261    1.9628 H   0  0  0  0  0  0  0  0  0  0  0  0
   -5.8368   -0.4996    2.1092 H   0  0  0  0  0  0  0  0  0  0  0  0
   -6.6791   -1.9174    0.1138 H   0  0  0  0  0  0  0  0  0  0  0  0
   -4.7198   -2.1119   -1.6985 H   0  0  0  0  0  0  0  0  0  0  0  0
   -2.0408   -1.0562   -1.6678 H   0  0  0  0  0  0  0  0  0  0  0  0
  1  2  2  3
  2  3  1  0
  3  4  2  0
  3  5  1  0
  5  6  1  0
  6  7  2  0
  7  8  1  0
  8  9  2  0
  9 10  1  0
 10 11  1  0
 11 12  2  0
 12 13  1  0
 13 14  2  0
 14 15  1  0
 15 16  1  0
 16 17  2  0
 17 18  1  0
 18 19  2  0
 10 20  2  0
 20  6  1  0
 19 11  1  0
 18 14  1  0
  1 21  1  0
  1 22  1  0
  2 23  1  0
  5 24  1  0
  7 25  1  0
  8 26  1  0
  9 27  1  0
 12 28  1  0
 15 29  1  0
 16 30  1  0
 17 31  1  0
 19 32  1  0
M  END
$$$$

     RDKit          3D

 57 60  0  0  0  0  0  0  0  0999 V2000
   -5.1779    0.3654    2.2592 C   0  0  0  0  0  0  0  0  0  0  0  0
   -5.8342   -0.8759    1.6718 C   0  0  0  0  0  0  0  0  0  0  0  0
   -5.2506   -1.2032    0.3625 N   0  0  0  0  0  0  0  0  0  0  0  0
   -6.0900   -1.1611   -0.8409 C   0  0  0  0  0  0  0  0  0  0  0  0
   -3.9213   -1.7570    0.2836 C   0  0  0  0  0  0  0  0  0  0  0  0
   -3.4423   -2.3805    1.2664 O   0  0  0  0  0  0  0  0  0  0  0  0
   -3.1125   -1.6512   -0.9431 C   0  0  0  0  0  0  0  0  0  0  0  0
   -2.4331   -2.6821   -1.5625 C   0  0  0  0  0  0  0  0  0  0  0  0
   -1.8028   -2.1994   -2.6606 N   0  0  0  0  0  0  0  0  0  0  0  0
   -2.0609   -0.9023   -2.7485 N   0  0  0  0  0  0  0  0  0  0  0  0
   -1.4244   -0.0368   -3.7341 C   0  0  0  0  0  0  0  0  0  0  0  0
   -2.8439   -0.5280   -1.7125 C   0  0  0  0  0  0  0  0  0  0  0  0
   -3.2276    0.8538   -1.3929 C   0  0  0  0  0  0  0  0  0  0  0  0
   -3.9415    1.4906   -2.2110 O   0  0  0  0  0  0  0  0  0  0  0  0
   -2.8628    1.4729   -0.1513 N   0  0  0  0  0  0  0  0  0  0  0  0
   -1.4967    1.6595    0.2619 C   0  0  0  0  0  0  0  0  0  0  0  0
   -1.1090    2.8994    0.8188 C   0  0  0  0  0  0  0  0  0  0  0  0
    0.2276    3.1443    1.1738 C   0  0  0  0  0  0  0  0  0  0  0  0
    1.1425    2.1191    0.9689 C   0  0  0  0  0  0  0  0  0  0  0  0
    2.4659    2.1641    1.2037 N   0  0  0  0  0  0  0  0  0  0  0  0
    2.8365    0.9147    0.8208 C   0  0  0  0  0  0  0  0  0  0  0  0
    4.1966    0.4658    0.8146 N   0  0  0  0  0  0  0  0  0  0  0  0
    5.3274    1.3545    0.9845 C   0  0  0  0  0  0  0  0  0  0  0  0
    6.5599    0.4628    0.9141 C   0  0  0  0  0  0  0  0  0  0  0  0
    6.0984   -0.8393    0.2491 C   0  0  0  0  0  0  0  0  0  0  0  0
    6.7041   -1.9645    0.8603 O   0  0  0  0  0  0  0  0  0  0  0  0
    7.9130   -2.2873    0.2050 C   0  0  0  0  0  0  0  0  0  0  0  0
    4.5863   -0.8844    0.4515 C   0  0  0  0  0  0  0  0  0  0  0  0
    1.8084    0.1529    0.3747 N   0  0  0  0  0  0  0  0  0  0  0  0
    0.7565    0.9405    0.4791 N   0  0  0  0  0  0  0  0  0  0  0  0
   -0.5169    0.6537    0.1180 C   0  0  0  0  0  0  0  0  0  0  0  0
   -5.5997    0.5739    3.2609 H   0  0  0  0  0  0  0  0  0  0  0  0
   -4.0830    0.2218    2.3522 H   0  0  0  0  0  0  0  0  0  0  0  0
   -5.3794    1.2376    1.6065 H   0  0  0  0  0  0  0  0  0  0  0  0
   -6.9227   -0.6836    1.5863 H   0  0  0  0  0  0  0  0  0  0  0  0
   -5.7104   -1.7317    2.3665 H   0  0  0  0  0  0  0  0  0  0  0  0
   -5.6067   -0.5577   -1.6315 H   0  0  0  0  0  0  0  0  0  0  0  0
   -6.2435   -2.1892   -1.2258 H   0  0  0  0  0  0  0  0  0  0  0  0
   -7.0791   -0.7095   -0.6318 H   0  0  0  0  0  0  0  0  0  0  0  0
   -2.4038   -3.7174   -1.2421 H   0  0  0  0  0  0  0  0  0  0  0  0
   -0.3448    0.0584   -3.4947 H   0  0  0  0  0  0  0  0  0  0  0  0
   -1.8847    0.9785   -3.7398 H   0  0  0  0  0  0  0  0  0  0  0  0
   -1.5372   -0.4820   -4.7433 H   0  0  0  0  0  0  0  0  0  0  0  0
   -3.5564    2.1533    0.2249 H   0  0  0  0  0  0  0  0  0  0  0  0
   -1.8379    3.6870    0.9538 H   0  0  0  0  0  0  0  0  0  0  0  0
    0.5328    4.0999    1.5790 H   0  0  0  0  0  0  0  0  0  0  0  0
    5.2708    1.8778    1.9628 H   0  0  0  0  0  0  0  0  0  0  0  0
    5.3436    2.0973    0.1588 H   0  0  0  0  0  0  0  0  0  0  0  0
    6.9249    0.2570    1.9448 H   0  0  0  0  0  0  0  0  0  0  0  0
    7.3738    0.9434    0.3298 H   0  0  0  0  0  0  0  0  0  0  0  0
    6.2884   -0.7799   -0.8512 H   0  0  0  0  0  0  0  0  0  0  0  0
    8.5702   -1.3994    0.0697 H   0  0  0  0  0  0  0  0  0  0  0  0
    7.7081   -2.7709   -0.7725 H   0  0  0  0  0  0  0  0  0  0  0  0
    8.4646   -3.0136    0.8248 H   0  0  0  0  0  0  0  0  0  0  0  0
    4.0807   -1.1964   -0.4891 H   0  0  0  0  0  0  0  0  0  0  0  0
    4.3065   -1.5827    1.2727 H   0  0  0  0  0  0  0  0  0  0  0  0
   -0.7503   -0.3285   -0.2568 H   0  0  0  0  0  0  0  0  0  0  0  0
  1  2  1  0
  2  3  1  0
  3  4  1  0
  3  5  1  0
  5  6  2  0
  5  7  1  0
  7  8  1  0
  8  9  2  0
  9 10  1  0
 10 11  1  0
 10 12  1  0
 12 13  1  0
 13 14  2  0
 13 15  1  0
 15 16  1  0
 16 17  1  0
 17 18  2  0
 18 19  1  0
 19 20  2  0
 20 21  1  0
 21 22  1  0
 22 23  1  0
 23 24  1  0
 24 25  1  0
 25 26  1  0
 26 27  1  0
 25 28  1  0
 21 29  2  0
 29 30  1  0
 30 31  1  0
 12  7  2  0
 31 16  2  0
 30 19  1  0
 28 22  1  0
  1 32  1  0
  1 33  1  0
  1 34  1  0
  2 35  1  0
  2 36  1  0
  4 37  1  0
  4 38  1  0
  4 39  1  0
  8 40  1  0
 11 41  1  0
 11 42  1  0
 11 43  1  0
 15 44  1  0
 17 45  1  0
 18 46  1  0
 23 47  1  0
 23 48  1  0
 24 49  1  0
 24 50  1  0
 25 51  1  0
 27 52  1  0
 27 53  1  0
 27 54  1  0
 28 55  1  0
 28 56  1  0
 31 57  1  0
M  END
$$$$

     RDKit          3D

 50 53  0  0  0  0  0  0  0  0999 V2000
   -6.7184   -1.5849    1.5738 C   0  0  0  0  0  0  0  0  0  0  0  0
   -6.2016   -1.8173    0.2230 N   0  0  0  0  0  0  0  0  0  0  0  0
   -6.9677   -2.5970   -0.7519 C   0  0  0  0  0  0  0  0  0  0  0  0
   -4.9226   -1.2768   -0.1498 C   0  0  0  0  0  0  0  0  0  0  0  0
   -4.3696   -1.4489   -1.3811 N   0  0  0  0  0  0  0  0  0  0  0  0
   -3.2149   -0.7729   -1.2421 C   0  0  0  0  0  0  0  0  0  0  0  0
   -2.2302   -0.6001   -2.2091 C   0  0  0  0  0  0  0  0  0  0  0  0
   -1.0977    0.1520   -1.8547 C   0  0  0  0  0  0  0  0  0  0  0  0
   -0.9729    0.6963   -0.5515 C   0  0  0  0  0  0  0  0  0  0  0  0
    0.1654    1.4854   -0.1692 N   0  0  0  0  0  0  0  0  0  0  0  0
    1.4989    1.2501   -0.6457 C   0  0  0  0  0  0  0  0  0  0  0  0
    1.7876    0.1656   -1.2199 O   0  0  0  0  0  0  0  0  0  0  0  0
    2.5629    2.2444   -0.4017 C   0  0  0  0  0  0  0  0  0  0  0  0
    3.8856    1.9784   -0.0801 C   0  0  0  0  0  0  0  0  0  0  0  0
    4.5382    0.6800    0.1738 C   0  0  0  0  0  0  0  0  0  0  0  0
    5.7044    0.4975   -0.2680 O   0  0  0  0  0  0  0  0  0  0  0  0
    3.8838   -0.3687    0.9146 N   0  0  0  0  0  0  0  0  0  0  0  0
    3.0820   -0.0453    2.1007 C   0  0  0  0  0  0  0  0  0  0  0  0
    3.9540   -1.7484    0.4142 C   0  0  0  0  0  0  0  0  0  0  0  0
    5.3410   -2.3689    0.5351 C   0  0  0  0  0  0  0  0  0  0  0  0
    4.2294   -2.8212    1.4628 C   0  0  0  0  0  0  0  0  0  0  0  0
    4.5071    3.2129   -0.0748 C   0  0  0  0  0  0  0  0  0  0  0  0
    3.6040    4.1697   -0.3636 N   0  0  0  0  0  0  0  0  0  0  0  0
    2.4349    3.5805   -0.5658 N   0  0  0  0  0  0  0  0  0  0  0  0
    1.2301    4.3154   -0.9388 C   0  0  0  0  0  0  0  0  0  0  0  0
   -2.0192    0.4962    0.3689 C   0  0  0  0  0  0  0  0  0  0  0  0
   -3.0890   -0.2375   -0.0242 N   0  0  0  0  0  0  0  0  0  0  0  0
   -4.1545   -0.5391    0.6894 N   0  0  0  0  0  0  0  0  0  0  0  0
   -6.8316   -0.4935    1.7474 H   0  0  0  0  0  0  0  0  0  0  0  0
   -7.7078   -2.0661    1.7235 H   0  0  0  0  0  0  0  0  0  0  0  0
   -6.0117   -2.0030    2.3220 H   0  0  0  0  0  0  0  0  0  0  0  0
   -7.1730   -1.9777   -1.6510 H   0  0  0  0  0  0  0  0  0  0  0  0
   -7.9378   -2.9378   -0.3341 H   0  0  0  0  0  0  0  0  0  0  0  0
   -6.3847   -3.4933   -1.0530 H   0  0  0  0  0  0  0  0  0  0  0  0
   -2.3368   -1.0196   -3.2010 H   0  0  0  0  0  0  0  0  0  0  0  0
   -0.3350    0.3278   -2.6010 H   0  0  0  0  0  0  0  0  0  0  0  0
    0.0421    2.1801    0.6016 H   0  0  0  0  0  0  0  0  0  0  0  0
    2.5091   -0.9295    2.4525 H   0  0  0  0  0  0  0  0  0  0  0  0
    3.7511    0.3002    2.9159 H   0  0  0  0  0  0  0  0  0  0  0  0
    2.3480    0.7544    1.8825 H   0  0  0  0  0  0  0  0  0  0  0  0
    3.3844   -2.0175   -0.5008 H   0  0  0  0  0  0  0  0  0  0  0  0
    6.1157   -1.7614    1.0506 H   0  0  0  0  0  0  0  0  0  0  0  0
    5.5903   -3.1078   -0.2560 H   0  0  0  0  0  0  0  0  0  0  0  0
    3.8184   -3.8223    1.2149 H   0  0  0  0  0  0  0  0  0  0  0  0
    4.3696   -2.4792    2.5104 H   0  0  0  0  0  0  0  0  0  0  0  0
    5.5512    3.4052    0.1326 H   0  0  0  0  0  0  0  0  0  0  0  0
    0.5762    4.4386   -0.0508 H   0  0  0  0  0  0  0  0  0  0  0  0
    0.6814    3.7749   -1.7386 H   0  0  0  0  0  0  0  0  0  0  0  0
    1.5013    5.3223   -1.3216 H   0  0  0  0  0  0  0  0  0  0  0  0
   -1.9715    0.9077    1.3695 H   0  0  0  0  0  0  0  0  0  0  0  0
  1  2  1  0
  2  3  1  0
  2  4  1  0
  4  5  1  0
  5  6  2  0
  6  7  1  0
  7  8  2  0
  8  9  1  0
  9 10  1  0
 10 11  1  0
 11 12  2  0
 11 13  1  0
 13 14  2  0
 14 15  1  0
 15 16  2  0
 15 17  1  0
 17 18  1  0
 17 19  1  0
 19 20  1  0
 20 21  1  0
 14 22  1  0
 22 23  2  0
 23 24  1  0
 24 25  1  0
  9 26  2  0
 26 27  1  0
 27 28  1  0
 28  4  2  0
 27  6  1  0
 24 13  1  0
 21 19  1  0
  1 29  1  0
  1 30  1  0
  1 31  1  0
  3 32  1  0
  3 33  1  0
  3 34  1  0
  7 35  1  0
  8 36  1  0
 10 37  1  0
 18 38  1  0
 18 39  1  0
 18 40  1  0
 19 41  1  0
 20 42  1  0
 20 43  1  0
 21 44  1  0
 21 45  1  0
 22 46  1  0
 25 47  1  0
 25 48  1  0
 25 49  1  0
 26 50  1  0
M  END
$$$$

     RDKit          3D

 39 41  0  0  0  0  0  0  0  0999 V2000
    8.1290    0.3638   -1.4269 C   0  0  0  0  0  0  0  0  0  0  0  0
    7.5077    0.8080   -0.1084 C   0  0  0  0  0  0  0  0  0  0  0  0
    6.1958    0.1798    0.0794 C   0  0  0  0  0  0  0  0  0  0  0  0
    5.1172   -0.3363    0.2339 C   0  0  0  0  0  0  0  0  0  0  0  0
    3.8311   -0.9501    0.4174 C   0  0  0  0  0  0  0  0  0  0  0  0
    3.7454   -2.2067    0.4168 O   0  0  0  0  0  0  0  0  0  0  0  0
    2.6611   -0.1289    0.5483 N   0  0  0  0  0  0  0  0  0  0  0  0
    1.3627   -0.6181    0.9191 C   0  0  0  0  0  0  0  0  0  0  0  0
    1.2046   -1.6880    1.8141 C   0  0  0  0  0  0  0  0  0  0  0  0
   -0.0797   -2.1006    2.1674 C   0  0  0  0  0  0  0  0  0  0  0  0
   -1.1939   -1.4471    1.6405 C   0  0  0  0  0  0  0  0  0  0  0  0
   -1.0109   -0.3695    0.7563 C   0  0  0  0  0  0  0  0  0  0  0  0
   -2.1605    0.3736    0.1798 C   0  0  0  0  0  0  0  0  0  0  0  0
   -2.0012    1.7322   -0.2122 C   0  0  0  0  0  0  0  0  0  0  0  0
   -3.0425    2.4351   -0.7500 N   0  0  0  0  0  0  0  0  0  0  0  0
   -4.2372    1.8200   -0.9191 C   0  0  0  0  0  0  0  0  0  0  0  0
   -5.3497    2.3770   -1.4241 N   0  0  0  0  0  0  0  0  0  0  0  0
   -6.2882    1.4017   -1.3979 C   0  0  0  0  0  0  0  0  0  0  0  0
   -5.7507    0.2238   -0.8826 C   0  0  0  0  0  0  0  0  0  0  0  0
   -6.4746   -1.0600   -0.6372 C   0  0  0  0  0  0  0  0  0  0  0  0
   -4.4389    0.5169   -0.5714 C   0  0  0  0  0  0  0  0  0  0  0  0
   -3.4185   -0.2468   -0.0150 C   0  0  0  0  0  0  0  0  0  0  0  0
    0.2577    0.0141    0.4372 N   0  0  0  0  0  0  0  0  0  0  0  0
    7.4796    0.6585   -2.2793 H   0  0  0  0  0  0  0  0  0  0  0  0
    8.2700   -0.7387   -1.4361 H   0  0  0  0  0  0  0  0  0  0  0  0
    9.1200    0.8490   -1.5517 H   0  0  0  0  0  0  0  0  0  0  0  0
    7.3853    1.9118   -0.1070 H   0  0  0  0  0  0  0  0  0  0  0  0
    8.1725    0.5194    0.7331 H   0  0  0  0  0  0  0  0  0  0  0  0
    2.7354    0.8742    0.2639 H   0  0  0  0  0  0  0  0  0  0  0  0
    2.0581   -2.1779    2.2625 H   0  0  0  0  0  0  0  0  0  0  0  0
   -0.2120   -2.9182    2.8643 H   0  0  0  0  0  0  0  0  0  0  0  0
   -2.1804   -1.7632    1.9513 H   0  0  0  0  0  0  0  0  0  0  0  0
   -1.0517    2.2334   -0.0767 H   0  0  0  0  0  0  0  0  0  0  0  0
   -5.4705    3.3586   -1.7587 H   0  0  0  0  0  0  0  0  0  0  0  0
   -7.3098    1.5381   -1.7283 H   0  0  0  0  0  0  0  0  0  0  0  0
   -7.4345   -1.0734   -1.1950 H   0  0  0  0  0  0  0  0  0  0  0  0
   -6.6825   -1.1660    0.4478 H   0  0  0  0  0  0  0  0  0  0  0  0
   -5.8524   -1.9143   -0.9766 H   0  0  0  0  0  0  0  0  0  0  0  0
   -3.5929   -1.2856    0.2309 H   0  0  0  0  0  0  0  0  0  0  0  0
  1  2  1  0
  2  3  1  0
  3  4  3  0
  4  5  1  0
  5  6  2  0
  5  7  1  0
  7  8  1  0
  8  9  2  0
  9 10  1  0
 10 11  2  0
 11 12  1  0
 12 13  1  0
 13 14  2  0
 14 15  1  0
 15 16  2  0
 16 17  1  0
 17 18  1  0
 18 19  2  0
 19 20  1  0
 19 21  1  0
 21 22  2  0
 12 23  2  0
 23  8  1  0
 22 13  1  0
 21 16  1  0
  1 24  1  0
  1 25  1  0
  1 26  1  0
  2 27  1  0
  2 28  1  0
  7 29  1  0
  9 30  1  0
 10 31  1  0
 11 32  1  0
 14 33  1  0
 17 34  1  0
 18 35  1  0
 20 36  1  0
 20 37  1  0
 20 38  1  0
 22 39  1  0
M  END
$$$$

     RDKit          3D

 33 35  0  0  0  0  0  0  0  0999 V2000
   -6.9287    2.4223    0.4709 C   0  0  0  0  0  0  0  0  0  0  0  0
   -5.8663    1.4225    0.3619 C   0  0  0  0  0  0  0  0  0  0  0  0
   -4.9907    0.5989    0.2720 C   0  0  0  0  0  0  0  0  0  0  0  0
   -3.9458   -0.3817    0.1643 C   0  0  0  0  0  0  0  0  0  0  0  0
   -4.1992   -1.5820    0.4500 O   0  0  0  0  0  0  0  0  0  0  0  0
   -2.6230    0.0244   -0.2172 N   0  0  0  0  0  0  0  0  0  0  0  0
   -1.5554   -0.8817   -0.5365 C   0  0  0  0  0  0  0  0  0  0  0  0
   -1.7954   -2.1122   -1.1681 C   0  0  0  0  0  0  0  0  0  0  0  0
   -0.7187   -2.9388   -1.4878 C   0  0  0  0  0  0  0  0  0  0  0  0
    0.5836   -2.5380   -1.1886 C   0  0  0  0  0  0  0  0  0  0  0  0
    0.8003   -1.2957   -0.5673 C   0  0  0  0  0  0  0  0  0  0  0  0
    2.1660   -0.8101   -0.2440 C   0  0  0  0  0  0  0  0  0  0  0  0
    3.2336   -1.7129    0.0293 C   0  0  0  0  0  0  0  0  0  0  0  0
    4.4828   -1.2494    0.3344 N   0  0  0  0  0  0  0  0  0  0  0  0
    4.6998    0.0869    0.3774 C   0  0  0  0  0  0  0  0  0  0  0  0
    5.8646    0.6918    0.6609 N   0  0  0  0  0  0  0  0  0  0  0  0
    5.6083    2.0197    0.5948 C   0  0  0  0  0  0  0  0  0  0  0  0
    4.2737    2.2401    0.2685 C   0  0  0  0  0  0  0  0  0  0  0  0
    3.4837    3.7927    0.0734 Cl  0  0  0  0  0  0  0  0  0  0  0  0
    3.7092    0.9912    0.1341 C   0  0  0  0  0  0  0  0  0  0  0  0
    2.4188    0.5802   -0.1780 C   0  0  0  0  0  0  0  0  0  0  0  0
   -0.2730   -0.5075   -0.2755 N   0  0  0  0  0  0  0  0  0  0  0  0
   -6.7612    3.0430    1.3750 H   0  0  0  0  0  0  0  0  0  0  0  0
   -6.9204    3.0706   -0.4294 H   0  0  0  0  0  0  0  0  0  0  0  0
   -7.9106    1.9117    0.5497 H   0  0  0  0  0  0  0  0  0  0  0  0
   -2.3927    1.0428   -0.1681 H   0  0  0  0  0  0  0  0  0  0  0  0
   -2.7953   -2.4184   -1.4434 H   0  0  0  0  0  0  0  0  0  0  0  0
   -0.8925   -3.8849   -1.9841 H   0  0  0  0  0  0  0  0  0  0  0  0
    1.4063   -3.1797   -1.4734 H   0  0  0  0  0  0  0  0  0  0  0  0
    3.0698   -2.7813    0.0249 H   0  0  0  0  0  0  0  0  0  0  0  0
    6.7766    0.2363    0.8865 H   0  0  0  0  0  0  0  0  0  0  0  0
    6.3485    2.7883    0.7744 H   0  0  0  0  0  0  0  0  0  0  0  0
    1.6436    1.3106   -0.3738 H   0  0  0  0  0  0  0  0  0  0  0  0
  1  2  1  0
  2  3  3  0
  3  4  1  0
  4  5  2  0
  4  6  1  0
  6  7  1  0
  7  8  2  0
  8  9  1  0
  9 10  2  0
 10 11  1  0
 11 12  1  0
 12 13  2  0
 13 14  1  0
 14 15  2  0
 15 16  1  0
 16 17  1  0
 17 18  2  0
 18 19  1  0
 18 20  1  0
 20 21  2  0
 11 22  2  0
 22  7  1  0
 21 12  1  0
 20 15  1  0
  1 23  1  0
  1 24  1  0
  1 25  1  0
  6 26  1  0
  8 27  1  0
  9 28  1  0
 10 29  1  0
 13 30  1  0
 16 31  1  0
 17 32  1  0
 21 33  1  0
M  END
$$$$

     RDKit          3D

 49 51  0  0  0  0  0  0  0  0999 V2000
   -5.5233   -0.9912    0.3552 C   0  0  0  0  0  0  0  0  0  0  0  0
   -4.0309   -1.1752    0.1005 C   0  0  0  0  0  0  0  0  0  0  0  0
   -3.7405   -1.1124   -1.3409 N   0  0  0  0  0  0  0  0  0  0  0  0
   -3.3923   -2.3296   -2.0788 C   0  0  0  0  0  0  0  0  0  0  0  0
   -3.9240    0.1127   -2.0765 C   0  0  0  0  0  0  0  0  0  0  0  0
   -4.4397    0.0772   -3.2263 O   0  0  0  0  0  0  0  0  0  0  0  0
   -3.5462    1.4200   -1.5095 C   0  0  0  0  0  0  0  0  0  0  0  0
   -4.2503    2.6002   -1.6519 C   0  0  0  0  0  0  0  0  0  0  0  0
   -3.6001    3.5887   -1.0080 N   0  0  0  0  0  0  0  0  0  0  0  0
   -2.5015    3.0760   -0.4746 N   0  0  0  0  0  0  0  0  0  0  0  0
   -1.5291    3.8793    0.2600 C   0  0  0  0  0  0  0  0  0  0  0  0
   -2.4319    1.7543   -0.7546 C   0  0  0  0  0  0  0  0  0  0  0  0
   -1.2962    0.8690   -0.4232 C   0  0  0  0  0  0  0  0  0  0  0  0
   -0.9458   -0.0206   -1.2447 O   0  0  0  0  0  0  0  0  0  0  0  0
   -0.6404    0.9743    0.8490 N   0  0  0  0  0  0  0  0  0  0  0  0
    0.6551    0.4197    1.1308 C   0  0  0  0  0  0  0  0  0  0  0  0
    0.9681    0.0088    2.4476 C   0  0  0  0  0  0  0  0  0  0  0  0
    2.2346   -0.5157    2.7534 C   0  0  0  0  0  0  0  0  0  0  0  0
    3.1610   -0.5987    1.7195 C   0  0  0  0  0  0  0  0  0  0  0  0
    4.4224   -1.0578    1.8052 N   0  0  0  0  0  0  0  0  0  0  0  0
    4.8480   -0.8916    0.5236 C   0  0  0  0  0  0  0  0  0  0  0  0
    6.1701   -1.2407    0.0807 N   0  0  0  0  0  0  0  0  0  0  0  0
    7.1239   -1.8120    1.0344 C   0  0  0  0  0  0  0  0  0  0  0  0
    6.5458   -1.0191   -1.3177 C   0  0  0  0  0  0  0  0  0  0  0  0
    3.9057   -0.3615   -0.2946 N   0  0  0  0  0  0  0  0  0  0  0  0
    2.8568   -0.1901    0.4839 N   0  0  0  0  0  0  0  0  0  0  0  0
    1.6512    0.3225    0.1350 C   0  0  0  0  0  0  0  0  0  0  0  0
   -5.7315   -1.0888    1.4415 H   0  0  0  0  0  0  0  0  0  0  0  0
   -6.1007   -1.7662   -0.1923 H   0  0  0  0  0  0  0  0  0  0  0  0
   -5.8518    0.0153    0.0201 H   0  0  0  0  0  0  0  0  0  0  0  0
   -3.7192   -2.1530    0.5262 H   0  0  0  0  0  0  0  0  0  0  0  0
   -3.4658   -0.3949    0.6479 H   0  0  0  0  0  0  0  0  0  0  0  0
   -2.4337   -2.1771   -2.6179 H   0  0  0  0  0  0  0  0  0  0  0  0
   -4.1904   -2.5666   -2.8135 H   0  0  0  0  0  0  0  0  0  0  0  0
   -3.2750   -3.2013   -1.4017 H   0  0  0  0  0  0  0  0  0  0  0  0
   -5.1828    2.7312   -2.1848 H   0  0  0  0  0  0  0  0  0  0  0  0
   -1.6572    3.7188    1.3503 H   0  0  0  0  0  0  0  0  0  0  0  0
   -1.6825    4.9571    0.0404 H   0  0  0  0  0  0  0  0  0  0  0  0
   -0.4964    3.6064   -0.0435 H   0  0  0  0  0  0  0  0  0  0  0  0
   -1.1851    1.3794    1.6432 H   0  0  0  0  0  0  0  0  0  0  0  0
    0.2257    0.0888    3.2315 H   0  0  0  0  0  0  0  0  0  0  0  0
    2.4802   -0.8389    3.7567 H   0  0  0  0  0  0  0  0  0  0  0  0
    7.2985   -1.0944    1.8636 H   0  0  0  0  0  0  0  0  0  0  0  0
    8.1005   -2.0337    0.5551 H   0  0  0  0  0  0  0  0  0  0  0  0
    6.7168   -2.7584    1.4490 H   0  0  0  0  0  0  0  0  0  0  0  0
    6.4532    0.0600   -1.5632 H   0  0  0  0  0  0  0  0  0  0  0  0
    7.5921   -1.3326   -1.5162 H   0  0  0  0  0  0  0  0  0  0  0  0
    5.8752   -1.6037   -1.9823 H   0  0  0  0  0  0  0  0  0  0  0  0
    1.4796    0.6661   -0.8766 H   0  0  0  0  0  0  0  0  0  0  0  0
  1  2  1  0
  2  3  1  0
  3  4  1  0
  3  5  1  0
  5  6  2  0
  5  7  1  0
  7  8  1  0
  8  9  2  0
  9 10  1  0
 10 11  1  0
 10 12  1  0
 12 13  1  0
 13 14  2  0
 13 15  1  0
 15 16  1  0
 16 17  1  0
 17 18  2  0
 18 19  1  0
 19 20  2  0
 20 21  1  0
 21 22  1  0
 22 23  1  0
 22 24  1  0
 21 25  2  0
 25 26  1  0
 26 27  1  0
 12  7  2  0
 27 16  2  0
 26 19  1  0
  1 28  1  0
  1 29  1  0
  1 30  1  0
  2 31  1  0
  2 32  1  0
  4 33  1  0
  4 34  1  0
  4 35  1  0
  8 36  1  0
 11 37  1  0
 11 38  1  0
 11 39  1  0
 15 40  1  0
 17 41  1  0
 18 42  1  0
 23 43  1  0
 23 44  1  0
 23 45  1  0
 24 46  1  0
 24 47  1  0
 24 48  1  0
 27 49  1  0
M  END
$$$$

     RDKit          3D

 58 60  0  0  0  0  0  0  0  0999 V2000
   -6.2227    2.5745    1.5496 C   0  0  0  0  0  0  0  0  0  0  0  0
   -6.6630    1.4906    0.5700 C   0  0  0  0  0  0  0  0  0  0  0  0
   -5.6648    0.4155    0.4987 N   0  0  0  0  0  0  0  0  0  0  0  0
   -5.5265   -0.5204    1.6258 C   0  0  0  0  0  0  0  0  0  0  0  0
   -4.1586   -0.3749    2.2882 C   0  0  0  0  0  0  0  0  0  0  0  0
   -4.8063    0.3135   -0.6559 C   0  0  0  0  0  0  0  0  0  0  0  0
   -4.4657    1.3578   -1.2743 O   0  0  0  0  0  0  0  0  0  0  0  0
   -4.3381   -0.9946   -1.1467 C   0  0  0  0  0  0  0  0  0  0  0  0
   -5.1180   -2.1204   -1.3316 C   0  0  0  0  0  0  0  0  0  0  0  0
   -4.3475   -3.1301   -1.7798 N   0  0  0  0  0  0  0  0  0  0  0  0
   -3.1059   -2.6814   -1.8835 N   0  0  0  0  0  0  0  0  0  0  0  0
   -2.0034   -3.5144   -2.3535 C   0  0  0  0  0  0  0  0  0  0  0  0
   -3.0535   -1.3852   -1.4957 C   0  0  0  0  0  0  0  0  0  0  0  0
   -1.8217   -0.5747   -1.3820 C   0  0  0  0  0  0  0  0  0  0  0  0
   -1.8622    0.6590   -1.6346 O   0  0  0  0  0  0  0  0  0  0  0  0
   -0.6028   -1.1732   -0.9156 N   0  0  0  0  0  0  0  0  0  0  0  0
    0.6969   -0.5796   -1.0731 C   0  0  0  0  0  0  0  0  0  0  0  0
    1.0122    0.2430   -2.1851 C   0  0  0  0  0  0  0  0  0  0  0  0
    2.2965    0.7955   -2.3234 C   0  0  0  0  0  0  0  0  0  0  0  0
    3.2354    0.4917   -1.3438 C   0  0  0  0  0  0  0  0  0  0  0  0
    4.5138    0.9071   -1.2980 N   0  0  0  0  0  0  0  0  0  0  0  0
    4.9464    0.3019   -0.1581 C   0  0  0  0  0  0  0  0  0  0  0  0
    6.2940    0.4228    0.3411 N   0  0  0  0  0  0  0  0  0  0  0  0
    7.2862    1.2031   -0.4120 C   0  0  0  0  0  0  0  0  0  0  0  0
    7.0741    2.6980   -0.1953 C   0  0  0  0  0  0  0  0  0  0  0  0
    6.6942   -0.3055    1.5538 C   0  0  0  0  0  0  0  0  0  0  0  0
    6.1680    0.3961    2.8020 C   0  0  0  0  0  0  0  0  0  0  0  0
    3.9912   -0.4438    0.4507 N   0  0  0  0  0  0  0  0  0  0  0  0
    2.9281   -0.3027   -0.3146 N   0  0  0  0  0  0  0  0  0  0  0  0
    1.7063   -0.8608   -0.1323 C   0  0  0  0  0  0  0  0  0  0  0  0
   -5.2286    2.9730    1.2573 H   0  0  0  0  0  0  0  0  0  0  0  0
   -6.1655    2.1664    2.5806 H   0  0  0  0  0  0  0  0  0  0  0  0
   -6.9581    3.4064    1.5386 H   0  0  0  0  0  0  0  0  0  0  0  0
   -7.6433    1.0725    0.8869 H   0  0  0  0  0  0  0  0  0  0  0  0
   -6.8151    1.9529   -0.4305 H   0  0  0  0  0  0  0  0  0  0  0  0
   -6.3100   -0.3268    2.3901 H   0  0  0  0  0  0  0  0  0  0  0  0
   -5.6658   -1.5650    1.2804 H   0  0  0  0  0  0  0  0  0  0  0  0
   -3.9819    0.6834    2.5760 H   0  0  0  0  0  0  0  0  0  0  0  0
   -3.3539   -0.7025    1.5958 H   0  0  0  0  0  0  0  0  0  0  0  0
   -4.1178   -1.0056    3.2019 H   0  0  0  0  0  0  0  0  0  0  0  0
   -6.1826   -2.1991   -1.1575 H   0  0  0  0  0  0  0  0  0  0  0  0
   -1.2808   -2.9084   -2.9392 H   0  0  0  0  0  0  0  0  0  0  0  0
   -1.4906   -3.9818   -1.4881 H   0  0  0  0  0  0  0  0  0  0  0  0
   -2.3924   -4.3183   -3.0132 H   0  0  0  0  0  0  0  0  0  0  0  0
   -0.6798   -2.0319   -0.3254 H   0  0  0  0  0  0  0  0  0  0  0  0
    0.2782    0.4370   -2.9552 H   0  0  0  0  0  0  0  0  0  0  0  0
    2.5481    1.4236   -3.1678 H   0  0  0  0  0  0  0  0  0  0  0  0
    7.2126    0.9649   -1.4951 H   0  0  0  0  0  0  0  0  0  0  0  0
    8.3193    0.9457   -0.0956 H   0  0  0  0  0  0  0  0  0  0  0  0
    7.8471    3.2669   -0.7529 H   0  0  0  0  0  0  0  0  0  0  0  0
    7.1591    2.9431    0.8843 H   0  0  0  0  0  0  0  0  0  0  0  0
    6.0737    3.0095   -0.5615 H   0  0  0  0  0  0  0  0  0  0  0  0
    6.3082   -1.3476    1.5152 H   0  0  0  0  0  0  0  0  0  0  0  0
    7.8011   -0.3739    1.6307 H   0  0  0  0  0  0  0  0  0  0  0  0
    6.5834    1.4233    2.8648 H   0  0  0  0  0  0  0  0  0  0  0  0
    6.4781   -0.1702    3.7050 H   0  0  0  0  0  0  0  0  0  0  0  0
    5.0602    0.4534    2.7826 H   0  0  0  0  0  0  0  0  0  0  0  0
    1.5146   -1.4992    0.7214 H   0  0  0  0  0  0  0  0  0  0  0  0
  1  2  1  0
  2  3  1  0
  3  4  1  0
  4  5  1  0
  3  6  1  0
  6  7  2  0
  6  8  1  0
  8  9  1  0
  9 10  2  0
 10 11  1  0
 11 12  1  0
 11 13  1  0
 13 14  1  0
 14 15  2  0
 14 16  1  0
 16 17  1  0
 17 18  1  0
 18 19  2  0
 19 20  1  0
 20 21  2  0
 21 22  1  0
 22 23  1  0
 23 24  1  0
 24 25  1  0
 23 26  1  0
 26 27  1  0
 22 28  2  0
 28 29  1  0
 29 30  1  0
 13  8  2  0
 30 17  2  0
 29 20  1  0
  1 31  1  0
  1 32  1  0
  1 33  1  0
  2 34  1  0
  2 35  1  0
  4 36  1  0
  4 37  1  0
  5 38  1  0
  5 39  1  0
  5 40  1  0
  9 41  1  0
 12 42  1  0
 12 43  1  0
 12 44  1  0
 16 45  1  0
 18 46  1  0
 19 47  1  0
 24 48  1  0
 24 49  1  0
 25 50  1  0
 25 51  1  0
 25 52  1  0
 26 53  1  0
 26 54  1  0
 27 55  1  0
 27 56  1  0
 27 57  1  0
 30 58  1  0
M  END
$$$$

     RDKit          3D

 56 59  0  0  0  0  0  0  0  0999 V2000
    6.5766    1.3435    1.9447 C   0  0  0  0  0  0  0  0  0  0  0  0
    5.9925    0.3547    2.9479 C   0  0  0  0  0  0  0  0  0  0  0  0
    5.5332   -0.8600    2.2617 N   0  0  0  0  0  0  0  0  0  0  0  0
    6.4028   -2.0420    2.2147 C   0  0  0  0  0  0  0  0  0  0  0  0
    5.9171   -3.1036    3.1966 C   0  0  0  0  0  0  0  0  0  0  0  0
    4.2495   -0.8792    1.6085 C   0  0  0  0  0  0  0  0  0  0  0  0
    3.7987   -1.9344    0.8765 N   0  0  0  0  0  0  0  0  0  0  0  0
    2.5907   -1.4861    0.4915 C   0  0  0  0  0  0  0  0  0  0  0  0
    1.6541   -2.1720   -0.2729 C   0  0  0  0  0  0  0  0  0  0  0  0
    0.4388   -1.5220   -0.5414 C   0  0  0  0  0  0  0  0  0  0  0  0
    0.1946   -0.2157   -0.0599 C   0  0  0  0  0  0  0  0  0  0  0  0
   -1.0723    0.4079   -0.3245 N   0  0  0  0  0  0  0  0  0  0  0  0
   -1.2455    1.8108   -0.5957 C   0  0  0  0  0  0  0  0  0  0  0  0
   -0.2563    2.5915   -0.5941 O   0  0  0  0  0  0  0  0  0  0  0  0
   -2.5879    2.3498   -0.8970 C   0  0  0  0  0  0  0  0  0  0  0  0
   -3.5752    1.7518   -1.6659 C   0  0  0  0  0  0  0  0  0  0  0  0
   -3.4792    0.5529   -2.5159 C   0  0  0  0  0  0  0  0  0  0  0  0
   -2.3635    0.1977   -2.9864 O   0  0  0  0  0  0  0  0  0  0  0  0
   -4.6558   -0.1948   -2.8472 N   0  0  0  0  0  0  0  0  0  0  0  0
   -5.1071   -0.2038   -4.2395 C   0  0  0  0  0  0  0  0  0  0  0  0
   -5.0941   -1.2464   -1.9285 C   0  0  0  0  0  0  0  0  0  0  0  0
   -5.7310   -0.7252   -0.6497 C   0  0  0  0  0  0  0  0  0  0  0  0
   -6.6001   -1.3352   -1.7333 C   0  0  0  0  0  0  0  0  0  0  0  0
   -4.6510    2.6196   -1.6028 C   0  0  0  0  0  0  0  0  0  0  0  0
   -4.3244    3.6824   -0.8414 N   0  0  0  0  0  0  0  0  0  0  0  0
   -3.0799    3.5143   -0.4199 N   0  0  0  0  0  0  0  0  0  0  0  0
   -2.3905    4.4724    0.4376 C   0  0  0  0  0  0  0  0  0  0  0  0
    1.1831    0.4129    0.7273 C   0  0  0  0  0  0  0  0  0  0  0  0
    2.3382   -0.2592    0.9568 N   0  0  0  0  0  0  0  0  0  0  0  0
    3.3693    0.1502    1.6691 N   0  0  0  0  0  0  0  0  0  0  0  0
    7.4428    0.8829    1.4240 H   0  0  0  0  0  0  0  0  0  0  0  0
    5.8122    1.6337    1.1921 H   0  0  0  0  0  0  0  0  0  0  0  0
    6.9165    2.2574    2.4762 H   0  0  0  0  0  0  0  0  0  0  0  0
    6.7723    0.1037    3.6991 H   0  0  0  0  0  0  0  0  0  0  0  0
    5.1522    0.8267    3.5013 H   0  0  0  0  0  0  0  0  0  0  0  0
    7.4488   -1.7674    2.4744 H   0  0  0  0  0  0  0  0  0  0  0  0
    6.4236   -2.4587    1.1840 H   0  0  0  0  0  0  0  0  0  0  0  0
    6.6022   -3.9745    3.1676 H   0  0  0  0  0  0  0  0  0  0  0  0
    5.9031   -2.6910    4.2269 H   0  0  0  0  0  0  0  0  0  0  0  0
    4.8962   -3.4460    2.9275 H   0  0  0  0  0  0  0  0  0  0  0  0
    1.8499   -3.1698   -0.6402 H   0  0  0  0  0  0  0  0  0  0  0  0
   -0.3130   -2.0296   -1.1285 H   0  0  0  0  0  0  0  0  0  0  0  0
   -1.9085   -0.2153   -0.3848 H   0  0  0  0  0  0  0  0  0  0  0  0
   -5.5133    0.7962   -4.4988 H   0  0  0  0  0  0  0  0  0  0  0  0
   -4.2614   -0.4448   -4.9191 H   0  0  0  0  0  0  0  0  0  0  0  0
   -5.8994   -0.9642   -4.3983 H   0  0  0  0  0  0  0  0  0  0  0  0
   -4.4897   -2.1742   -1.8463 H   0  0  0  0  0  0  0  0  0  0  0  0
   -5.6071   -1.3788    0.2370 H   0  0  0  0  0  0  0  0  0  0  0  0
   -5.8547    0.3724   -0.5650 H   0  0  0  0  0  0  0  0  0  0  0  0
   -6.9700   -2.3560   -1.5012 H   0  0  0  0  0  0  0  0  0  0  0  0
   -7.2084   -0.5929   -2.2887 H   0  0  0  0  0  0  0  0  0  0  0  0
   -5.6011    2.5048   -2.1099 H   0  0  0  0  0  0  0  0  0  0  0  0
   -3.0941    5.2662    0.7672 H   0  0  0  0  0  0  0  0  0  0  0  0
   -1.5556    4.9461   -0.1216 H   0  0  0  0  0  0  0  0  0  0  0  0
   -1.9924    3.9558    1.3361 H   0  0  0  0  0  0  0  0  0  0  0  0
    1.0235    1.3872    1.1723 H   0  0  0  0  0  0  0  0  0  0  0  0
  1  2  1  0
  2  3  1  0
  3  4  1  0
  4  5  1  0
  3  6  1  0
  6  7  1  0
  7  8  2  0
  8  9  1  0
  9 10  2  0
 10 11  1  0
 11 12  1  0
 12 13  1  0
 13 14  2  0
 13 15  1  0
 15 16  2  0
 16 17  1  0
 17 18  2  0
 17 19  1  0
 19 20  1  0
 19 21  1  0
 21 22  1  0
 22 23  1  0
 16 24  1  0
 24 25  2  0
 25 26  1  0
 26 27  1  0
 11 28  2  0
 28 29  1  0
 29 30  1  0
 30  6  2  0
 29  8  1  0
 26 15  1  0
 23 21  1  0
  1 31  1  0
  1 32  1  0
  1 33  1  0
  2 34  1  0
  2 35  1  0
  4 36  1  0
  4 37  1  0
  5 38  1  0
  5 39  1  0
  5 40  1  0
  9 41  1  0
 10 42  1  0
 12 43  1  0
 20 44  1  0
 20 45  1  0
 20 46  1  0
 21 47  1  0
 22 48  1  0
 22 49  1  0
 23 50  1  0
 23 51  1  0
 24 52  1  0
 27 53  1  0
 27 54  1  0
 27 55  1  0
 28 56  1  0
M  END
$$$$

     RDKit          3D

 36 38  0  0  0  0  0  0  0  0999 V2000
   -6.8575    1.7758    2.5446 C   0  0  0  0  0  0  0  0  0  0  0  0
   -5.8994    0.8780    1.8992 C   0  0  0  0  0  0  0  0  0  0  0  0
   -5.1098    0.1385    1.3676 C   0  0  0  0  0  0  0  0  0  0  0  0
   -4.1672   -0.7422    0.7344 C   0  0  0  0  0  0  0  0  0  0  0  0
   -4.5946   -1.7275    0.0765 O   0  0  0  0  0  0  0  0  0  0  0  0
   -2.7619   -0.4618    0.8176 N   0  0  0  0  0  0  0  0  0  0  0  0
   -1.7274   -1.3613    0.3895 C   0  0  0  0  0  0  0  0  0  0  0  0
   -1.8663   -2.7536    0.5020 C   0  0  0  0  0  0  0  0  0  0  0  0
   -0.8163   -3.5805    0.1039 C   0  0  0  0  0  0  0  0  0  0  0  0
    0.3626   -3.0239   -0.3928 C   0  0  0  0  0  0  0  0  0  0  0  0
    0.4836   -1.6264   -0.4844 C   0  0  0  0  0  0  0  0  0  0  0  0
    1.7223   -0.9792   -0.9865 C   0  0  0  0  0  0  0  0  0  0  0  0
    2.5776   -1.6299   -1.9214 C   0  0  0  0  0  0  0  0  0  0  0  0
    3.7111   -1.0178   -2.3782 N   0  0  0  0  0  0  0  0  0  0  0  0
    4.0145    0.2264   -1.9374 C   0  0  0  0  0  0  0  0  0  0  0  0
    5.0950    0.9460   -2.2801 N   0  0  0  0  0  0  0  0  0  0  0  0
    4.9904    2.1078   -1.5931 C   0  0  0  0  0  0  0  0  0  0  0  0
    3.8272    2.1156   -0.8257 C   0  0  0  0  0  0  0  0  0  0  0  0
    3.3829    3.1855    0.1178 C   0  0  0  0  0  0  0  0  0  0  0  0
    3.2222    0.8968   -1.0530 C   0  0  0  0  0  0  0  0  0  0  0  0
    2.0588    0.3238   -0.5513 C   0  0  0  0  0  0  0  0  0  0  0  0
   -0.5580   -0.8458   -0.0791 N   0  0  0  0  0  0  0  0  0  0  0  0
   -7.7020    1.1837    2.9532 H   0  0  0  0  0  0  0  0  0  0  0  0
   -6.3552    2.3215    3.3697 H   0  0  0  0  0  0  0  0  0  0  0  0
   -7.2419    2.5033    1.8004 H   0  0  0  0  0  0  0  0  0  0  0  0
   -2.4731    0.4959    1.1211 H   0  0  0  0  0  0  0  0  0  0  0  0
   -2.7575   -3.1985    0.9230 H   0  0  0  0  0  0  0  0  0  0  0  0
   -0.9098   -4.6550    0.1962 H   0  0  0  0  0  0  0  0  0  0  0  0
    1.1763   -3.6818   -0.6663 H   0  0  0  0  0  0  0  0  0  0  0  0
    2.3346   -2.6111   -2.3041 H   0  0  0  0  0  0  0  0  0  0  0  0
    5.8625    0.6653   -2.9300 H   0  0  0  0  0  0  0  0  0  0  0  0
    5.7221    2.9040   -1.6390 H   0  0  0  0  0  0  0  0  0  0  0  0
    3.9196    4.1338   -0.0957 H   0  0  0  0  0  0  0  0  0  0  0  0
    3.5980    2.8721    1.1604 H   0  0  0  0  0  0  0  0  0  0  0  0
    2.2924    3.3592    0.0046 H   0  0  0  0  0  0  0  0  0  0  0  0
    1.4443    0.8633    0.1587 H   0  0  0  0  0  0  0  0  0  0  0  0
  1  2  1  0
  2  3  3  0
  3  4  1  0
  4  5  2  0
  4  6  1  0
  6  7  1  0
  7  8  2  0
  8  9  1  0
  9 10  2  0
 10 11  1  0
 11 12  1  0
 12 13  2  0
 13 14  1  0
 14 15  2  0
 15 16  1  0
 16 17  1  0
 17 18  2  0
 18 19  1  0
 18 20  1  0
 20 21  2  0
 11 22  2  0
 22  7  1  0
 21 12  1  0
 20 15  1  0
  1 23  1  0
  1 24  1  0
  1 25  1  0
  6 26  1  0
  8 27  1  0
  9 28  1  0
 10 29  1  0
 13 30  1  0
 16 31  1  0
 17 32  1  0
 19 33  1  0
 19 34  1  0
 19 35  1  0
 21 36  1  0
M  END
$$$$

     RDKit          3D

 36 38  0  0  0  0  0  0  0  0999 V2000
    7.6312    0.6671    0.8904 C   0  0  0  0  0  0  0  0  0  0  0  0
    6.3845    1.5411    0.8362 C   0  0  0  0  0  0  0  0  0  0  0  0
    5.2413    0.7755    0.3282 C   0  0  0  0  0  0  0  0  0  0  0  0
    4.3014    0.1464   -0.0892 C   0  0  0  0  0  0  0  0  0  0  0  0
    3.1806   -0.6028   -0.5864 C   0  0  0  0  0  0  0  0  0  0  0  0
    3.3732   -1.7556   -1.0559 O   0  0  0  0  0  0  0  0  0  0  0  0
    1.8582   -0.0519   -0.4969 N   0  0  0  0  0  0  0  0  0  0  0  0
    0.6974   -0.6203   -1.1230 C   0  0  0  0  0  0  0  0  0  0  0  0
    0.7742   -1.2814   -2.3590 C   0  0  0  0  0  0  0  0  0  0  0  0
   -0.3898   -1.7840   -2.9397 C   0  0  0  0  0  0  0  0  0  0  0  0
   -1.6180   -1.6209   -2.2985 C   0  0  0  0  0  0  0  0  0  0  0  0
   -1.6720   -0.9442   -1.0675 C   0  0  0  0  0  0  0  0  0  0  0  0
   -2.9540   -0.7245   -0.3508 C   0  0  0  0  0  0  0  0  0  0  0  0
   -4.0499   -1.6241   -0.4897 C   0  0  0  0  0  0  0  0  0  0  0  0
   -5.2202   -1.4125    0.1843 N   0  0  0  0  0  0  0  0  0  0  0  0
   -5.3305   -0.3325    0.9943 C   0  0  0  0  0  0  0  0  0  0  0  0
   -6.4088    0.0081    1.7184 N   0  0  0  0  0  0  0  0  0  0  0  0
   -6.0626    1.1424    2.3716 C   0  0  0  0  0  0  0  0  0  0  0  0
   -4.7588    1.5079    2.0507 C   0  0  0  0  0  0  0  0  0  0  0  0
   -3.8808    2.9004    2.6532 Cl  0  0  0  0  0  0  0  0  0  0  0  0
   -4.3075    0.5514    1.1687 C   0  0  0  0  0  0  0  0  0  0  0  0
   -3.0933    0.3871    0.5128 C   0  0  0  0  0  0  0  0  0  0  0  0
   -0.5173   -0.4577   -0.5306 N   0  0  0  0  0  0  0  0  0  0  0  0
    8.4850    1.2628    1.2767 H   0  0  0  0  0  0  0  0  0  0  0  0
    7.4674   -0.1988    1.5675 H   0  0  0  0  0  0  0  0  0  0  0  0
    7.8880    0.2961   -0.1252 H   0  0  0  0  0  0  0  0  0  0  0  0
    6.5663    2.4089    0.1676 H   0  0  0  0  0  0  0  0  0  0  0  0
    6.1472    1.9158    1.8542 H   0  0  0  0  0  0  0  0  0  0  0  0
    1.7115    0.7621    0.1423 H   0  0  0  0  0  0  0  0  0  0  0  0
    1.7123   -1.3797   -2.8878 H   0  0  0  0  0  0  0  0  0  0  0  0
   -0.3425   -2.2863   -3.8974 H   0  0  0  0  0  0  0  0  0  0  0  0
   -2.5126   -1.9904   -2.7812 H   0  0  0  0  0  0  0  0  0  0  0  0
   -3.9681   -2.5044   -1.1114 H   0  0  0  0  0  0  0  0  0  0  0  0
   -7.3223   -0.4949    1.7696 H   0  0  0  0  0  0  0  0  0  0  0  0
   -6.7191    1.6767    3.0458 H   0  0  0  0  0  0  0  0  0  0  0  0
   -2.2916    1.1007    0.6576 H   0  0  0  0  0  0  0  0  0  0  0  0
  1  2  1  0
  2  3  1  0
  3  4  3  0
  4  5  1  0
  5  6  2  0
  5  7  1  0
  7  8  1  0
  8  9  2  0
  9 10  1  0
 10 11  2  0
 11 12  1  0
 12 13  1  0
 13 14  2  0
 14 15  1  0
 15 16  2  0
 16 17  1  0
 17 18  1  0
 18 19  2  0
 19 20  1  0
 19 21  1  0
 21 22  2  0
 12 23  2  0
 23  8  1  0
 22 13  1  0
 21 16  1  0
  1 24  1  0
  1 25  1  0
  1 26  1  0
  2 27  1  0
  2 28  1  0
  7 29  1  0
  9 30  1  0
 10 31  1  0
 11 32  1  0
 14 33  1  0
 17 34  1  0
 18 35  1  0
 22 36  1  0
M  END
$$$$

     RDKit          3D

 33 35  0  0  0  0  0  0  0  0999 V2000
   -7.0618   -0.3915    2.0807 C   0  0  0  0  0  0  0  0  0  0  0  0
   -5.9450   -0.3730    1.1359 C   0  0  0  0  0  0  0  0  0  0  0  0
   -5.0246   -0.3576    0.3576 C   0  0  0  0  0  0  0  0  0  0  0  0
   -3.9265   -0.3386   -0.5691 C   0  0  0  0  0  0  0  0  0  0  0  0
   -4.1121   -0.7399   -1.7484 O   0  0  0  0  0  0  0  0  0  0  0  0
   -2.6286    0.0879   -0.1285 N   0  0  0  0  0  0  0  0  0  0  0  0
   -1.5122    0.3250   -1.0003 C   0  0  0  0  0  0  0  0  0  0  0  0
   -1.6832    0.8340   -2.2973 C   0  0  0  0  0  0  0  0  0  0  0  0
   -0.5622    1.0791   -3.0896 C   0  0  0  0  0  0  0  0  0  0  0  0
    0.7158    0.8274   -2.5901 C   0  0  0  0  0  0  0  0  0  0  0  0
    0.8630    0.3297   -1.2836 C   0  0  0  0  0  0  0  0  0  0  0  0
    2.1995    0.0624   -0.6940 C   0  0  0  0  0  0  0  0  0  0  0  0
    3.3161   -0.2900   -1.5056 C   0  0  0  0  0  0  0  0  0  0  0  0
    4.5375   -0.5418   -0.9458 N   0  0  0  0  0  0  0  0  0  0  0  0
    4.6783   -0.4547    0.3985 C   0  0  0  0  0  0  0  0  0  0  0  0
    5.8047   -0.6710    1.0932 N   0  0  0  0  0  0  0  0  0  0  0  0
    5.4683   -0.4777    2.3902 C   0  0  0  0  0  0  0  0  0  0  0  0
    4.1215   -0.1388    2.5089 C   0  0  0  0  0  0  0  0  0  0  0  0
    3.6397   -0.1319    1.2183 C   0  0  0  0  0  0  0  0  0  0  0  0
    2.3748    0.1316    0.7081 C   0  0  0  0  0  0  0  0  0  0  0  0
   -0.2526    0.1087   -0.5319 N   0  0  0  0  0  0  0  0  0  0  0  0
   -7.0069    0.5020    2.7360 H   0  0  0  0  0  0  0  0  0  0  0  0
   -7.0059   -1.3093    2.7016 H   0  0  0  0  0  0  0  0  0  0  0  0
   -8.0199   -0.3815    1.5214 H   0  0  0  0  0  0  0  0  0  0  0  0
   -2.4557    0.1384    0.9012 H   0  0  0  0  0  0  0  0  0  0  0  0
   -2.6646    1.0727   -2.6837 H   0  0  0  0  0  0  0  0  0  0  0  0
   -0.6830    1.4811   -4.0873 H   0  0  0  0  0  0  0  0  0  0  0  0
    1.5730    1.0540   -3.2095 H   0  0  0  0  0  0  0  0  0  0  0  0
    3.2125   -0.3893   -2.5769 H   0  0  0  0  0  0  0  0  0  0  0  0
    6.7422   -0.9338    0.7162 H   0  0  0  0  0  0  0  0  0  0  0  0
    6.1627   -0.5774    3.2140 H   0  0  0  0  0  0  0  0  0  0  0  0
    3.5745    0.0719    3.4183 H   0  0  0  0  0  0  0  0  0  0  0  0
    1.5607    0.3919    1.3734 H   0  0  0  0  0  0  0  0  0  0  0  0
  1  2  1  0
  2  3  3  0
  3  4  1  0
  4  5  2  0
  4  6  1  0
  6  7  1  0
  7  8  2  0
  8  9  1  0
  9 10  2  0
 10 11  1  0
 11 12  1  0
 12 13  2  0
 13 14  1  0
 14 15  2  0
 15 16  1  0
 16 17  1  0
 17 18  2  0
 18 19  1  0
 19 20  2  0
 11 21  2  0
 21  7  1  0
 20 12  1  0
 19 15  1  0
  1 22  1  0
  1 23  1  0
  1 24  1  0
  6 25  1  0
  8 26  1  0
  9 27  1  0
 10 28  1  0
 13 29  1  0
 16 30  1  0
 17 31  1  0
 18 32  1  0
 20 33  1  0
M  END
$$$$

     RDKit          3D

 30 32  0  0  0  0  0  0  0  0999 V2000
    5.6547   -1.3105    0.3539 C   0  0  0  0  0  0  0  0  0  0  0  0
    4.9998   -1.3406   -0.6578 C   0  0  0  0  0  0  0  0  0  0  0  0
    4.2167   -1.3782   -1.8665 C   0  0  0  0  0  0  0  0  0  0  0  0
    4.7108   -1.9151   -2.8923 O   0  0  0  0  0  0  0  0  0  0  0  0
    2.8693   -0.8833   -1.9084 N   0  0  0  0  0  0  0  0  0  0  0  0
    2.2867   -0.0110   -0.9280 C   0  0  0  0  0  0  0  0  0  0  0  0
    3.0247    1.0258   -0.3375 C   0  0  0  0  0  0  0  0  0  0  0  0
    2.4032    1.8713    0.5806 C   0  0  0  0  0  0  0  0  0  0  0  0
    1.0563    1.6905    0.8967 C   0  0  0  0  0  0  0  0  0  0  0  0
    0.3332    0.6543    0.2799 C   0  0  0  0  0  0  0  0  0  0  0  0
   -1.1072    0.4293    0.5631 C   0  0  0  0  0  0  0  0  0  0  0  0
   -1.6850    0.7820    1.8166 C   0  0  0  0  0  0  0  0  0  0  0  0
   -3.0108    0.5596    2.0643 N   0  0  0  0  0  0  0  0  0  0  0  0
   -3.7768   -0.0056    1.1008 C   0  0  0  0  0  0  0  0  0  0  0  0
   -5.0849   -0.2861    1.1910 N   0  0  0  0  0  0  0  0  0  0  0  0
   -5.4147   -0.8431    0.0019 C   0  0  0  0  0  0  0  0  0  0  0  0
   -4.3051   -0.9127   -0.8388 C   0  0  0  0  0  0  0  0  0  0  0  0
   -3.2698   -0.3701   -0.1097 C   0  0  0  0  0  0  0  0  0  0  0  0
   -1.9299   -0.1721   -0.4182 C   0  0  0  0  0  0  0  0  0  0  0  0
    0.9686   -0.1499   -0.6191 N   0  0  0  0  0  0  0  0  0  0  0  0
    6.2290   -1.2833    1.2423 H   0  0  0  0  0  0  0  0  0  0  0  0
    2.2439   -1.2495   -2.6613 H   0  0  0  0  0  0  0  0  0  0  0  0
    4.0583    1.2002   -0.6050 H   0  0  0  0  0  0  0  0  0  0  0  0
    2.9617    2.6792    1.0356 H   0  0  0  0  0  0  0  0  0  0  0  0
    0.5850    2.3766    1.5872 H   0  0  0  0  0  0  0  0  0  0  0  0
   -1.0805    1.2092    2.6043 H   0  0  0  0  0  0  0  0  0  0  0  0
   -5.7163   -0.1138    2.0044 H   0  0  0  0  0  0  0  0  0  0  0  0
   -6.4105   -1.1847   -0.2478 H   0  0  0  0  0  0  0  0  0  0  0  0
   -4.2668   -1.3083   -1.8451 H   0  0  0  0  0  0  0  0  0  0  0  0
   -1.5436   -0.4629   -1.3873 H   0  0  0  0  0  0  0  0  0  0  0  0
  1  2  3  0
  2  3  1  0
  3  4  2  0
  3  5  1  0
  5  6  1  0
  6  7  2  0
  7  8  1  0
  8  9  2  0
  9 10  1  0
 10 11  1  0
 11 12  2  0
 12 13  1  0
 13 14  2  0
 14 15  1  0
 15 16  1  0
 16 17  2  0
 17 18  1  0
 18 19  2  0
 10 20  2  0
 20  6  1  0
 19 11  1  0
 18 14  1  0
  1 21  1  0
  5 22  1  0
  7 23  1  0
  8 24  1  0
  9 25  1  0
 12 26  1  0
 15 27  1  0
 16 28  1  0
 17 29  1  0
 19 30  1  0
M  END
$$$$

     RDKit          3D

 60 63  0  0  0  0  0  0  0  0999 V2000
   -7.0434   -0.9614   -1.5349 C   0  0  0  0  0  0  0  0  0  0  0  0
   -5.6379   -0.3725   -1.5818 C   0  0  0  0  0  0  0  0  0  0  0  0
   -5.5966    0.9212   -0.8815 N   0  0  0  0  0  0  0  0  0  0  0  0
   -5.6676    2.1662   -1.6614 C   0  0  0  0  0  0  0  0  0  0  0  0
   -4.3466    2.9231   -1.5850 C   0  0  0  0  0  0  0  0  0  0  0  0
   -5.6530    0.9790    0.5617 C   0  0  0  0  0  0  0  0  0  0  0  0
   -6.1201    2.0010    1.1331 O   0  0  0  0  0  0  0  0  0  0  0  0
   -5.2178   -0.1509    1.3985 C   0  0  0  0  0  0  0  0  0  0  0  0
   -6.0014   -0.8217    2.3160 C   0  0  0  0  0  0  0  0  0  0  0  0
   -5.2590   -1.7591    2.9344 N   0  0  0  0  0  0  0  0  0  0  0  0
   -4.0280   -1.6930    2.4494 N   0  0  0  0  0  0  0  0  0  0  0  0
   -2.9617   -2.5873    2.8899 C   0  0  0  0  0  0  0  0  0  0  0  0
   -3.9521   -0.7048    1.5259 C   0  0  0  0  0  0  0  0  0  0  0  0
   -2.7181   -0.2525    0.8423 C   0  0  0  0  0  0  0  0  0  0  0  0
   -2.7963    0.2813   -0.2955 O   0  0  0  0  0  0  0  0  0  0  0  0
   -1.4443   -0.3453    1.4957 N   0  0  0  0  0  0  0  0  0  0  0  0
   -0.1902   -0.3974    0.7949 C   0  0  0  0  0  0  0  0  0  0  0  0
   -0.0884   -0.9449   -0.5100 C   0  0  0  0  0  0  0  0  0  0  0  0
    1.1530   -1.0062   -1.1642 C   0  0  0  0  0  0  0  0  0  0  0  0
    2.2642   -0.5253   -0.4800 C   0  0  0  0  0  0  0  0  0  0  0  0
    3.5329   -0.4981   -0.9259 N   0  0  0  0  0  0  0  0  0  0  0  0
    4.1693    0.0549    0.1408 C   0  0  0  0  0  0  0  0  0  0  0  0
    5.5794    0.3059    0.1676 N   0  0  0  0  0  0  0  0  0  0  0  0
    6.2699    0.8693    1.3117 C   0  0  0  0  0  0  0  0  0  0  0  0
    7.7512    0.7928    0.9654 C   0  0  0  0  0  0  0  0  0  0  0  0
    7.8170    0.6175   -0.5547 C   0  0  0  0  0  0  0  0  0  0  0  0
    8.8836   -0.2498   -0.8961 O   0  0  0  0  0  0  0  0  0  0  0  0
    9.2829   -0.0265   -2.2309 C   0  0  0  0  0  0  0  0  0  0  0  0
    6.4629    0.0219   -0.9474 C   0  0  0  0  0  0  0  0  0  0  0  0
    3.3447    0.3475    1.1752 N   0  0  0  0  0  0  0  0  0  0  0  0
    2.1537   -0.0281    0.7558 N   0  0  0  0  0  0  0  0  0  0  0  0
    0.9818    0.0543    1.4321 C   0  0  0  0  0  0  0  0  0  0  0  0
   -7.7662   -0.2572   -1.9993 H   0  0  0  0  0  0  0  0  0  0  0  0
   -7.3466   -1.1561   -0.4849 H   0  0  0  0  0  0  0  0  0  0  0  0
   -7.0656   -1.9198   -2.0950 H   0  0  0  0  0  0  0  0  0  0  0  0
   -5.3353   -0.2520   -2.6446 H   0  0  0  0  0  0  0  0  0  0  0  0
   -4.9198   -1.0869   -1.1291 H   0  0  0  0  0  0  0  0  0  0  0  0
   -5.8937    1.9547   -2.7289 H   0  0  0  0  0  0  0  0  0  0  0  0
   -6.4915    2.8080   -1.2810 H   0  0  0  0  0  0  0  0  0  0  0  0
   -3.5314    2.3080   -2.0209 H   0  0  0  0  0  0  0  0  0  0  0  0
   -4.0989    3.1661   -0.5305 H   0  0  0  0  0  0  0  0  0  0  0  0
   -4.4254    3.8697   -2.1595 H   0  0  0  0  0  0  0  0  0  0  0  0
   -7.0492   -0.6427    2.5180 H   0  0  0  0  0  0  0  0  0  0  0  0
   -2.3721   -2.1018    3.6946 H   0  0  0  0  0  0  0  0  0  0  0  0
   -3.3980   -3.5270    3.2900 H   0  0  0  0  0  0  0  0  0  0  0  0
   -2.3002   -2.8511    2.0380 H   0  0  0  0  0  0  0  0  0  0  0  0
   -1.4251   -0.2644    2.5367 H   0  0  0  0  0  0  0  0  0  0  0  0
   -0.9596   -1.3440   -1.0115 H   0  0  0  0  0  0  0  0  0  0  0  0
    1.2417   -1.4214   -2.1598 H   0  0  0  0  0  0  0  0  0  0  0  0
    6.0505    0.2801    2.2286 H   0  0  0  0  0  0  0  0  0  0  0  0
    5.9546    1.9254    1.4541 H   0  0  0  0  0  0  0  0  0  0  0  0
    8.2904    1.7087    1.2917 H   0  0  0  0  0  0  0  0  0  0  0  0
    8.1996   -0.0909    1.4725 H   0  0  0  0  0  0  0  0  0  0  0  0
    7.9243    1.6352   -1.0048 H   0  0  0  0  0  0  0  0  0  0  0  0
    8.4342   -0.1561   -2.9389 H   0  0  0  0  0  0  0  0  0  0  0  0
    9.7340    0.9839   -2.3458 H   0  0  0  0  0  0  0  0  0  0  0  0
   10.0588   -0.7732   -2.4972 H   0  0  0  0  0  0  0  0  0  0  0  0
    6.5316   -1.0785   -1.0925 H   0  0  0  0  0  0  0  0  0  0  0  0
    6.0826    0.5016   -1.8751 H   0  0  0  0  0  0  0  0  0  0  0  0
    0.9527    0.4643    2.4344 H   0  0  0  0  0  0  0  0  0  0  0  0
  1  2  1  0
  2  3  1  0
  3  4  1  0
  4  5  1  0
  3  6  1  0
  6  7  2  0
  6  8  1  0
  8  9  1  0
  9 10  2  0
 10 11  1  0
 11 12  1  0
 11 13  1  0
 13 14  1  0
 14 15  2  0
 14 16  1  0
 16 17  1  0
 17 18  1  0
 18 19  2  0
 19 20  1  0
 20 21  2  0
 21 22  1  0
 22 23  1  0
 23 24  1  0
 24 25  1  0
 25 26  1  0
 26 27  1  0
 27 28  1  0
 26 29  1  0
 22 30  2  0
 30 31  1  0
 31 32  1  0
 13  8  2  0
 32 17  2  0
 31 20  1  0
 29 23  1  0
  1 33  1  0
  1 34  1  0
  1 35  1  0
  2 36  1  0
  2 37  1  0
  4 38  1  0
  4 39  1  0
  5 40  1  0
  5 41  1  0
  5 42  1  0
  9 43  1  0
 12 44  1  0
 12 45  1  0
 12 46  1  0
 16 47  1  0
 18 48  1  0
 19 49  1  0
 24 50  1  0
 24 51  1  0
 25 52  1  0
 25 53  1  0
 26 54  1  0
 28 55  1  0
 28 56  1  0
 28 57  1  0
 29 58  1  0
 29 59  1  0
 32 60  1  0
M  END
$$$$

     RDKit          3D

 36 38  0  0  0  0  0  0  0  0999 V2000
    7.3387    0.3103    1.1996 C   0  0  0  0  0  0  0  0  0  0  0  0
    6.3074    0.1618    2.3116 C   0  0  0  0  0  0  0  0  0  0  0  0
    4.9572    0.0540    1.7491 C   0  0  0  0  0  0  0  0  0  0  0  0
    3.8478   -0.0347    1.2856 C   0  0  0  0  0  0  0  0  0  0  0  0
    2.5267   -0.1406    0.7300 C   0  0  0  0  0  0  0  0  0  0  0  0
    1.5316    0.0309    1.4827 O   0  0  0  0  0  0  0  0  0  0  0  0
    2.3623   -0.4391   -0.6655 N   0  0  0  0  0  0  0  0  0  0  0  0
    1.0898   -0.5634   -1.3246 C   0  0  0  0  0  0  0  0  0  0  0  0
    1.0382   -0.8673   -2.6906 C   0  0  0  0  0  0  0  0  0  0  0  0
   -0.2000   -0.9930   -3.3196 C   0  0  0  0  0  0  0  0  0  0  0  0
   -1.3755   -0.8110   -2.5902 C   0  0  0  0  0  0  0  0  0  0  0  0
   -1.2997   -0.4953   -1.2219 C   0  0  0  0  0  0  0  0  0  0  0  0
   -2.5171   -0.2938   -0.3950 C   0  0  0  0  0  0  0  0  0  0  0  0
   -2.4678   -0.5303    1.0076 C   0  0  0  0  0  0  0  0  0  0  0  0
   -3.5720   -0.3428    1.7910 N   0  0  0  0  0  0  0  0  0  0  0  0
   -4.7237    0.0793    1.2169 C   0  0  0  0  0  0  0  0  0  0  0  0
   -5.8830    0.3169    1.8476 N   0  0  0  0  0  0  0  0  0  0  0  0
   -6.7379    0.7297    0.8825 C   0  0  0  0  0  0  0  0  0  0  0  0
   -6.1094    0.7517   -0.3615 C   0  0  0  0  0  0  0  0  0  0  0  0
   -4.8208    0.3292   -0.1186 C   0  0  0  0  0  0  0  0  0  0  0  0
   -3.7326    0.1575   -0.9652 C   0  0  0  0  0  0  0  0  0  0  0  0
   -0.0732   -0.3894   -0.6368 N   0  0  0  0  0  0  0  0  0  0  0  0
    7.3135   -0.5748    0.5276 H   0  0  0  0  0  0  0  0  0  0  0  0
    7.1379    1.2284    0.6058 H   0  0  0  0  0  0  0  0  0  0  0  0
    8.3535    0.3900    1.6432 H   0  0  0  0  0  0  0  0  0  0  0  0
    6.5275   -0.7509    2.9051 H   0  0  0  0  0  0  0  0  0  0  0  0
    6.3520    1.0460    2.9823 H   0  0  0  0  0  0  0  0  0  0  0  0
    3.2283   -0.5750   -1.2357 H   0  0  0  0  0  0  0  0  0  0  0  0
    1.9477   -1.0110   -3.2603 H   0  0  0  0  0  0  0  0  0  0  0  0
   -0.2491   -1.2385   -4.3727 H   0  0  0  0  0  0  0  0  0  0  0  0
   -2.3259   -0.9407   -3.0898 H   0  0  0  0  0  0  0  0  0  0  0  0
   -1.5531   -0.8732    1.4736 H   0  0  0  0  0  0  0  0  0  0  0  0
   -6.0846    0.2104    2.8665 H   0  0  0  0  0  0  0  0  0  0  0  0
   -7.7677    1.0053    1.0674 H   0  0  0  0  0  0  0  0  0  0  0  0
   -6.5409    1.0407   -1.3106 H   0  0  0  0  0  0  0  0  0  0  0  0
   -3.8262    0.3914   -2.0172 H   0  0  0  0  0  0  0  0  0  0  0  0
  1  2  1  0
  2  3  1  0
  3  4  3  0
  4  5  1  0
  5  6  2  0
  5  7  1  0
  7  8  1  0
  8  9  2  0
  9 10  1  0
 10 11  2  0
 11 12  1  0
 12 13  1  0
 13 14  2  0
 14 15  1  0
 15 16  2  0
 16 17  1  0
 17 18  1  0
 18 19  2  0
 19 20  1  0
 20 21  2  0
 12 22  2  0
 22  8  1  0
 21 13  1  0
 20 16  1  0
  1 23  1  0
  1 24  1  0
  1 25  1  0
  2 26  1  0
  2 27  1  0
  7 28  1  0
  9 29  1  0
 10 30  1  0
 11 31  1  0
 14 32  1  0
 17 33  1  0
 18 34  1  0
 19 35  1  0
 21 36  1  0
M  END
$$$$

     RDKit          3D

 55 57  0  0  0  0  0  0  0  0999 V2000
    6.1702    1.7388    1.9174 C   0  0  0  0  0  0  0  0  0  0  0  0
    4.7479    1.5237    1.4124 C   0  0  0  0  0  0  0  0  0  0  0  0
    4.7201    0.4687    0.3918 N   0  0  0  0  0  0  0  0  0  0  0  0
    4.9815    0.8109   -1.0058 C   0  0  0  0  0  0  0  0  0  0  0  0
    4.6099   -0.9147    0.7855 C   0  0  0  0  0  0  0  0  0  0  0  0
    4.8749   -1.2580    1.9708 O   0  0  0  0  0  0  0  0  0  0  0  0
    4.2058   -1.9587   -0.1684 C   0  0  0  0  0  0  0  0  0  0  0  0
    4.9085   -3.1158   -0.4399 C   0  0  0  0  0  0  0  0  0  0  0  0
    4.2726   -3.8072   -1.4061 N   0  0  0  0  0  0  0  0  0  0  0  0
    3.1847   -3.1301   -1.7446 N   0  0  0  0  0  0  0  0  0  0  0  0
    2.2346   -3.5976   -2.7524 C   0  0  0  0  0  0  0  0  0  0  0  0
    3.1013   -1.9979   -1.0090 C   0  0  0  0  0  0  0  0  0  0  0  0
    1.9699   -1.0449   -1.0555 C   0  0  0  0  0  0  0  0  0  0  0  0
    1.4297   -0.7859   -2.1639 O   0  0  0  0  0  0  0  0  0  0  0  0
    1.4978   -0.4036    0.1392 N   0  0  0  0  0  0  0  0  0  0  0  0
    0.2318    0.2666    0.2379 C   0  0  0  0  0  0  0  0  0  0  0  0
    0.0944    1.3791    1.1010 C   0  0  0  0  0  0  0  0  0  0  0  0
   -1.1510    2.0078    1.2642 C   0  0  0  0  0  0  0  0  0  0  0  0
   -2.2317    1.4822    0.5628 C   0  0  0  0  0  0  0  0  0  0  0  0
   -3.5054    1.9099    0.6111 N   0  0  0  0  0  0  0  0  0  0  0  0
   -4.1115    1.0223   -0.2242 C   0  0  0  0  0  0  0  0  0  0  0  0
   -5.5260    1.0351   -0.5032 N   0  0  0  0  0  0  0  0  0  0  0  0
   -6.3918    2.0355    0.1379 C   0  0  0  0  0  0  0  0  0  0  0  0
   -6.6598    1.6607    1.5923 C   0  0  0  0  0  0  0  0  0  0  0  0
   -6.0934    0.0700   -1.4561 C   0  0  0  0  0  0  0  0  0  0  0  0
   -6.2588   -1.3007   -0.8034 C   0  0  0  0  0  0  0  0  0  0  0  0
   -3.2589    0.1089   -0.7505 N   0  0  0  0  0  0  0  0  0  0  0  0
   -2.0870    0.4230   -0.2393 N   0  0  0  0  0  0  0  0  0  0  0  0
   -0.9093   -0.2168   -0.4371 C   0  0  0  0  0  0  0  0  0  0  0  0
    6.1844    2.5764    2.6463 H   0  0  0  0  0  0  0  0  0  0  0  0
    6.5404    0.8222    2.4224 H   0  0  0  0  0  0  0  0  0  0  0  0
    6.8478    1.9822    1.0691 H   0  0  0  0  0  0  0  0  0  0  0  0
    4.0846    1.2521    2.2651 H   0  0  0  0  0  0  0  0  0  0  0  0
    4.3587    2.4769    0.9896 H   0  0  0  0  0  0  0  0  0  0  0  0
    5.2752    1.8789   -1.1080 H   0  0  0  0  0  0  0  0  0  0  0  0
    4.0727    0.6449   -1.6163 H   0  0  0  0  0  0  0  0  0  0  0  0
    5.8088    0.1832   -1.3985 H   0  0  0  0  0  0  0  0  0  0  0  0
    5.8371   -3.4263    0.0202 H   0  0  0  0  0  0  0  0  0  0  0  0
    2.4911   -4.6306   -3.0744 H   0  0  0  0  0  0  0  0  0  0  0  0
    2.2713   -2.9286   -3.6399 H   0  0  0  0  0  0  0  0  0  0  0  0
    1.2069   -3.6046   -2.3296 H   0  0  0  0  0  0  0  0  0  0  0  0
    2.0596   -0.4770    1.0120 H   0  0  0  0  0  0  0  0  0  0  0  0
    0.9539    1.7533    1.6435 H   0  0  0  0  0  0  0  0  0  0  0  0
   -1.2668    2.8603    1.9226 H   0  0  0  0  0  0  0  0  0  0  0  0
   -7.3654    2.1123   -0.3898 H   0  0  0  0  0  0  0  0  0  0  0  0
   -5.9156    3.0389    0.0894 H   0  0  0  0  0  0  0  0  0  0  0  0
   -5.7167    1.6606    2.1747 H   0  0  0  0  0  0  0  0  0  0  0  0
   -7.3527    2.3989    2.0460 H   0  0  0  0  0  0  0  0  0  0  0  0
   -7.1229    0.6542    1.6496 H   0  0  0  0  0  0  0  0  0  0  0  0
   -7.0873    0.4081   -1.8219 H   0  0  0  0  0  0  0  0  0  0  0  0
   -5.4352   -0.0144   -2.3480 H   0  0  0  0  0  0  0  0  0  0  0  0
   -6.9711   -1.2349    0.0445 H   0  0  0  0  0  0  0  0  0  0  0  0
   -6.6576   -2.0243   -1.5471 H   0  0  0  0  0  0  0  0  0  0  0  0
   -5.2842   -1.6770   -0.4296 H   0  0  0  0  0  0  0  0  0  0  0  0
   -0.8675   -1.0971   -1.0659 H   0  0  0  0  0  0  0  0  0  0  0  0
  1  2  1  0
  2  3  1  0
  3  4  1  0
  3  5  1  0
  5  6  2  0
  5  7  1  0
  7  8  1  0
  8  9  2  0
  9 10  1  0
 10 11  1  0
 10 12  1  0
 12 13  1  0
 13 14  2  0
 13 15  1  0
 15 16  1  0
 16 17  1  0
 17 18  2  0
 18 19  1  0
 19 20  2  0
 20 21  1  0
 21 22  1  0
 22 23  1  0
 23 24  1  0
 22 25  1  0
 25 26  1  0
 21 27  2  0
 27 28  1  0
 28 29  1  0
 12  7  2  0
 29 16  2  0
 28 19  1  0
  1 30  1  0
  1 31  1  0
  1 32  1  0
  2 33  1  0
  2 34  1  0
  4 35  1  0
  4 36  1  0
  4 37  1  0
  8 38  1  0
 11 39  1  0
 11 40  1  0
 11 41  1  0
 15 42  1  0
 17 43  1  0
 18 44  1  0
 23 45  1  0
 23 46  1  0
 24 47  1  0
 24 48  1  0
 24 49  1  0
 25 50  1  0
 25 51  1  0
 26 52  1  0
 26 53  1  0
 26 54  1  0
 29 55  1  0
M  END
$$$$

     RDKit          3D

 70 72  0  0  0  0  0  0  0  0999 V2000
    8.0196    3.5314   -1.5771 C   0  0  0  0  0  0  0  0  0  0  0  0
    8.5315    2.5206   -0.5518 C   0  0  0  0  0  0  0  0  0  0  0  0
    8.8980    1.1622   -1.1761 C   0  0  0  0  0  0  0  0  0  0  0  0
    7.7319    0.4284   -1.8640 C   0  0  0  0  0  0  0  0  0  0  0  0
    6.5859    0.0899   -0.8988 C   0  0  0  0  0  0  0  0  0  0  0  0
    5.5400   -0.8068   -1.5778 C   0  0  0  0  0  0  0  0  0  0  0  0
    4.4318   -1.2547   -0.6113 C   0  0  0  0  0  0  0  0  0  0  0  0
    3.4783   -0.1107   -0.2315 C   0  0  0  0  0  0  0  0  0  0  0  0
    2.3457   -0.6153    0.6256 C   0  0  0  0  0  0  0  0  0  0  0  0
    1.0354   -0.6612    0.1233 C   0  0  0  0  0  0  0  0  0  0  0  0
   -0.0140   -1.1177    0.9267 C   0  0  0  0  0  0  0  0  0  0  0  0
    0.2326   -1.5345    2.2498 C   0  0  0  0  0  0  0  0  0  0  0  0
   -0.7838   -2.0004    3.1005 O   0  0  0  0  0  0  0  0  0  0  0  0
   -2.1668   -2.0945    2.7542 C   0  0  0  0  0  0  0  0  0  0  0  0
   -2.4344   -3.2621    1.8317 C   0  0  0  0  0  0  0  0  0  0  0  0
   -1.5162   -4.0016    1.5095 O   0  0  0  0  0  0  0  0  0  0  0  0
   -3.8216   -3.5778    1.3276 C   0  0  0  0  0  0  0  0  0  0  0  0
   -4.7546   -2.4706    1.5494 N   0  0  0  0  0  0  0  0  0  0  0  0
   -5.6878   -2.3958    2.5288 C   0  0  0  0  0  0  0  0  0  0  0  0
   -6.3810   -1.1926    2.4512 C   0  0  0  0  0  0  0  0  0  0  0  0
   -5.8341   -0.5255    1.3751 C   0  0  0  0  0  0  0  0  0  0  0  0
   -6.1298    0.7280    0.8455 C   0  0  0  0  0  0  0  0  0  0  0  0
   -5.3883    1.1670   -0.2711 C   0  0  0  0  0  0  0  0  0  0  0  0
   -5.7221    2.7458   -0.9857 S   0  0  0  0  0  6  0  0  0  0  0  0
   -6.1559    3.6959    0.0958 O   0  0  0  0  0  0  0  0  0  0  0  0
   -4.4604    3.2868   -1.5990 O   0  0  0  0  0  0  0  0  0  0  0  0
   -6.9648    2.6494   -2.2094 N   0  0  0  0  0  0  0  0  0  0  0  0
   -8.2203    2.1798   -1.6098 C   0  0  0  0  0  0  0  0  0  0  0  0
   -6.5402    1.7359   -3.2773 C   0  0  0  0  0  0  0  0  0  0  0  0
   -4.3776    0.3395   -0.8188 C   0  0  0  0  0  0  0  0  0  0  0  0
   -4.1021   -0.9208   -0.2590 C   0  0  0  0  0  0  0  0  0  0  0  0
   -4.8553   -1.3247    0.8456 C   0  0  0  0  0  0  0  0  0  0  0  0
    1.5396   -1.4846    2.7474 C   0  0  0  0  0  0  0  0  0  0  0  0
    2.5888   -1.0274    1.9457 C   0  0  0  0  0  0  0  0  0  0  0  0
    7.9175    4.5264   -1.0944 H   0  0  0  0  0  0  0  0  0  0  0  0
    7.0219    3.2300   -1.9582 H   0  0  0  0  0  0  0  0  0  0  0  0
    8.7310    3.6199   -2.4256 H   0  0  0  0  0  0  0  0  0  0  0  0
    7.7792    2.3910    0.2543 H   0  0  0  0  0  0  0  0  0  0  0  0
    9.4457    2.9396   -0.0779 H   0  0  0  0  0  0  0  0  0  0  0  0
    9.7073    1.3172   -1.9225 H   0  0  0  0  0  0  0  0  0  0  0  0
    9.3147    0.5078   -0.3795 H   0  0  0  0  0  0  0  0  0  0  0  0
    8.1360   -0.5163   -2.2900 H   0  0  0  0  0  0  0  0  0  0  0  0
    7.3463    1.0303   -2.7147 H   0  0  0  0  0  0  0  0  0  0  0  0
    6.1000    1.0325   -0.5738 H   0  0  0  0  0  0  0  0  0  0  0  0
    6.9961   -0.4315   -0.0057 H   0  0  0  0  0  0  0  0  0  0  0  0
    6.0452   -1.7193   -1.9643 H   0  0  0  0  0  0  0  0  0  0  0  0
    5.0926   -0.2763   -2.4470 H   0  0  0  0  0  0  0  0  0  0  0  0
    3.8423   -2.0555   -1.1100 H   0  0  0  0  0  0  0  0  0  0  0  0
    4.8894   -1.6937    0.3024 H   0  0  0  0  0  0  0  0  0  0  0  0
    3.0813    0.3553   -1.1603 H   0  0  0  0  0  0  0  0  0  0  0  0
    4.0205    0.6771    0.3327 H   0  0  0  0  0  0  0  0  0  0  0  0
    0.8244   -0.3473   -0.8920 H   0  0  0  0  0  0  0  0  0  0  0  0
   -1.0094   -1.1451    0.5069 H   0  0  0  0  0  0  0  0  0  0  0  0
   -2.7499   -2.2470    3.6864 H   0  0  0  0  0  0  0  0  0  0  0  0
   -2.5041   -1.1396    2.3004 H   0  0  0  0  0  0  0  0  0  0  0  0
   -4.1845   -4.4881    1.8524 H   0  0  0  0  0  0  0  0  0  0  0  0
   -3.7831   -3.8131    0.2422 H   0  0  0  0  0  0  0  0  0  0  0  0
   -5.8544   -3.1655    3.2713 H   0  0  0  0  0  0  0  0  0  0  0  0
   -7.1739   -0.8517    3.1034 H   0  0  0  0  0  0  0  0  0  0  0  0
   -6.9086    1.3411    1.2813 H   0  0  0  0  0  0  0  0  0  0  0  0
   -9.0282    2.1867   -2.3721 H   0  0  0  0  0  0  0  0  0  0  0  0
   -8.5331    2.8635   -0.7920 H   0  0  0  0  0  0  0  0  0  0  0  0
   -8.1190    1.1487   -1.2047 H   0  0  0  0  0  0  0  0  0  0  0  0
   -5.5894    2.0914   -3.7283 H   0  0  0  0  0  0  0  0  0  0  0  0
   -7.3021    1.7196   -4.0858 H   0  0  0  0  0  0  0  0  0  0  0  0
   -6.3978    0.6999   -2.8964 H   0  0  0  0  0  0  0  0  0  0  0  0
   -3.8088    0.6705   -1.6783 H   0  0  0  0  0  0  0  0  0  0  0  0
   -3.3262   -1.5508   -0.6741 H   0  0  0  0  0  0  0  0  0  0  0  0
    1.7423   -1.7996    3.7635 H   0  0  0  0  0  0  0  0  0  0  0  0
    3.5908   -0.9895    2.3555 H   0  0  0  0  0  0  0  0  0  0  0  0
  1  2  1  0
  2  3  1  0
  3  4  1  0
  4  5  1  0
  5  6  1  0
  6  7  1  0
  7  8  1  0
  8  9  1  0
  9 10  2  0
 10 11  1  0
 11 12  2  0
 12 13  1  0
 13 14  1  0
 14 15  1  0
 15 16  2  0
 15 17  1  0
 17 18  1  0
 18 19  1  0
 19 20  2  0
 20 21  1  0
 21 22  2  0
 22 23  1  0
 23 24  1  0
 24 25  2  0
 24 26  2  0
 24 27  1  0
 27 28  1  0
 27 29  1  0
 23 30  2  0
 30 31  1  0
 31 32  2  0
 12 33  1  0
 33 34  2  0
 34  9  1  0
 32 18  1  0
 32 21  1  0
  1 35  1  0
  1 36  1  0
  1 37  1  0
  2 38  1  0
  2 39  1  0
  3 40  1  0
  3 41  1  0
  4 42  1  0
  4 43  1  0
  5 44  1  0
  5 45  1  0
  6 46  1  0
  6 47  1  0
  7 48  1  0
  7 49  1  0
  8 50  1  0
  8 51  1  0
 10 52  1  0
 11 53  1  0
 14 54  1  0
 14 55  1  0
 17 56  1  0
 17 57  1  0
 19 58  1  0
 20 59  1  0
 22 60  1  0
 28 61  1  0
 28 62  1  0
 28 63  1  0
 29 64  1  0
 29 65  1  0
 29 66  1  0
 30 67  1  0
 31 68  1  0
 33 69  1  0
 34 70  1  0
M  END
$$$$

     RDKit          3D

 64 66  0  0  0  0  0  0  0  0999 V2000
   10.9749    0.7029    1.9697 C   0  0  0  0  0  0  0  0  0  0  0  0
   10.4048    0.7765    0.5574 C   0  0  0  0  0  0  0  0  0  0  0  0
    8.8777    0.6411    0.5671 C   0  0  0  0  0  0  0  0  0  0  0  0
    8.3154    0.6601   -0.8625 C   0  0  0  0  0  0  0  0  0  0  0  0
    6.7782    0.6673   -0.8957 C   0  0  0  0  0  0  0  0  0  0  0  0
    6.1699   -0.6502   -0.3829 C   0  0  0  0  0  0  0  0  0  0  0  0
    4.6717   -0.7731   -0.7004 C   0  0  0  0  0  0  0  0  0  0  0  0
    3.8225    0.2771    0.0340 C   0  0  0  0  0  0  0  0  0  0  0  0
    2.3500    0.0012   -0.1362 C   0  0  0  0  0  0  0  0  0  0  0  0
    1.5652   -0.3770    0.9650 C   0  0  0  0  0  0  0  0  0  0  0  0
    0.1981   -0.6184    0.8079 C   0  0  0  0  0  0  0  0  0  0  0  0
   -0.4071   -0.4903   -0.4475 C   0  0  0  0  0  0  0  0  0  0  0  0
   -1.7809   -0.7503   -0.5529 O   0  0  0  0  0  0  0  0  0  0  0  0
   -2.5240   -0.6933   -1.7698 C   0  0  0  0  0  0  0  0  0  0  0  0
   -3.9717   -1.0488   -1.5530 C   0  0  0  0  0  0  0  0  0  0  0  0
   -4.7346   -0.9825   -2.5049 O   0  0  0  0  0  0  0  0  0  0  0  0
   -4.5185   -1.4875   -0.2173 C   0  0  0  0  0  0  0  0  0  0  0  0
   -5.4284   -0.4675    0.3074 N   0  0  0  0  0  0  0  0  0  0  0  0
   -5.0746    0.5861    1.0841 C   0  0  0  0  0  0  0  0  0  0  0  0
   -6.1840    1.3733    1.3767 C   0  0  0  0  0  0  0  0  0  0  0  0
   -7.2427    0.7610    0.7379 C   0  0  0  0  0  0  0  0  0  0  0  0
   -8.5892    1.1159    0.6824 C   0  0  0  0  0  0  0  0  0  0  0  0
   -9.4590    0.2972   -0.0688 C   0  0  0  0  0  0  0  0  0  0  0  0
  -11.1738    0.6864   -0.1650 S   0  0  0  0  0  6  0  0  0  0  0  0
  -12.0304   -0.1503    1.0820 N   0  0  0  0  0  0  0  0  0  0  0  0
  -11.3713    2.1684   -0.0020 O   0  0  0  0  0  0  0  0  0  0  0  0
  -11.7117    0.2732   -1.5069 O   0  0  0  0  0  0  0  0  0  0  0  0
   -8.9574   -0.8506   -0.7299 C   0  0  0  0  0  0  0  0  0  0  0  0
   -7.5923   -1.1811   -0.6559 C   0  0  0  0  0  0  0  0  0  0  0  0
   -6.7559   -0.3494    0.0955 C   0  0  0  0  0  0  0  0  0  0  0  0
    0.3767   -0.1081   -1.5530 C   0  0  0  0  0  0  0  0  0  0  0  0
    1.7435    0.1398   -1.3949 C   0  0  0  0  0  0  0  0  0  0  0  0
   10.5600    1.5194    2.5977 H   0  0  0  0  0  0  0  0  0  0  0  0
   10.7298   -0.2775    2.4307 H   0  0  0  0  0  0  0  0  0  0  0  0
   12.0796    0.8108    1.9308 H   0  0  0  0  0  0  0  0  0  0  0  0
   10.6897    1.7498    0.1047 H   0  0  0  0  0  0  0  0  0  0  0  0
   10.8514   -0.0394   -0.0495 H   0  0  0  0  0  0  0  0  0  0  0  0
    8.4404    1.4810    1.1499 H   0  0  0  0  0  0  0  0  0  0  0  0
    8.6047   -0.3144    1.0626 H   0  0  0  0  0  0  0  0  0  0  0  0
    8.7005   -0.2155   -1.4304 H   0  0  0  0  0  0  0  0  0  0  0  0
    8.6730    1.5770   -1.3792 H   0  0  0  0  0  0  0  0  0  0  0  0
    6.4025    1.5210   -0.2917 H   0  0  0  0  0  0  0  0  0  0  0  0
    6.4580    0.8336   -1.9480 H   0  0  0  0  0  0  0  0  0  0  0  0
    6.3182   -0.7361    0.7150 H   0  0  0  0  0  0  0  0  0  0  0  0
    6.6914   -1.5063   -0.8640 H   0  0  0  0  0  0  0  0  0  0  0  0
    4.5183   -0.6861   -1.7983 H   0  0  0  0  0  0  0  0  0  0  0  0
    4.3372   -1.7891   -0.3930 H   0  0  0  0  0  0  0  0  0  0  0  0
    4.0920    0.2762    1.1139 H   0  0  0  0  0  0  0  0  0  0  0  0
    4.0407    1.2904   -0.3655 H   0  0  0  0  0  0  0  0  0  0  0  0
    2.0096   -0.4867    1.9460 H   0  0  0  0  0  0  0  0  0  0  0  0
   -0.3945   -0.9096    1.6666 H   0  0  0  0  0  0  0  0  0  0  0  0
   -2.4724    0.3376   -2.1828 H   0  0  0  0  0  0  0  0  0  0  0  0
   -2.0897   -1.4051   -2.5058 H   0  0  0  0  0  0  0  0  0  0  0  0
   -3.7123   -1.6771    0.5230 H   0  0  0  0  0  0  0  0  0  0  0  0
   -5.0510   -2.4550   -0.3395 H   0  0  0  0  0  0  0  0  0  0  0  0
   -4.0643    0.7795    1.4226 H   0  0  0  0  0  0  0  0  0  0  0  0
   -6.2094    2.2749    1.9752 H   0  0  0  0  0  0  0  0  0  0  0  0
   -8.9500    1.9949    1.2034 H   0  0  0  0  0  0  0  0  0  0  0  0
  -11.8018   -1.1656    0.9802 H   0  0  0  0  0  0  0  0  0  0  0  0
  -11.6241    0.1624    1.9927 H   0  0  0  0  0  0  0  0  0  0  0  0
   -9.6240   -1.4866   -1.2994 H   0  0  0  0  0  0  0  0  0  0  0  0
   -7.2131   -2.0540   -1.1705 H   0  0  0  0  0  0  0  0  0  0  0  0
   -0.0603    0.0027   -2.5365 H   0  0  0  0  0  0  0  0  0  0  0  0
    2.3287    0.4436   -2.2542 H   0  0  0  0  0  0  0  0  0  0  0  0
  1  2  1  0
  2  3  1  0
  3  4  1  0
  4  5  1  0
  5  6  1  0
  6  7  1  0
  7  8  1  0
  8  9  1  0
  9 10  2  0
 10 11  1  0
 11 12  2  0
 12 13  1  0
 13 14  1  0
 14 15  1  0
 15 16  2  0
 15 17  1  0
 17 18  1  0
 18 19  1  0
 19 20  2  0
 20 21  1  0
 21 22  2  0
 22 23  1  0
 23 24  1  0
 24 25  1  0
 24 26  2  0
 24 27  2  0
 23 28  2  0
 28 29  1  0
 29 30  2  0
 12 31  1  0
 31 32  2  0
 32  9  1  0
 30 18  1  0
 30 21  1  0
  1 33  1  0
  1 34  1  0
  1 35  1  0
  2 36  1  0
  2 37  1  0
  3 38  1  0
  3 39  1  0
  4 40  1  0
  4 41  1  0
  5 42  1  0
  5 43  1  0
  6 44  1  0
  6 45  1  0
  7 46  1  0
  7 47  1  0
  8 48  1  0
  8 49  1  0
 10 50  1  0
 11 51  1  0
 14 52  1  0
 14 53  1  0
 17 54  1  0
 17 55  1  0
 19 56  1  0
 20 57  1  0
 22 58  1  0
 25 59  1  0
 25 60  1  0
 28 61  1  0
 29 62  1  0
 31 63  1  0
 32 64  1  0
M  END
$$$$

     RDKit          3D

 67 69  0  0  0  0  0  0  0  0999 V2000
    9.7726   -1.8348   -0.0283 C   0  0  0  0  0  0  0  0  0  0  0  0
    9.2188   -0.6989    0.8279 C   0  0  0  0  0  0  0  0  0  0  0  0
    7.6970   -0.8063    0.9817 C   0  0  0  0  0  0  0  0  0  0  0  0
    7.1439    0.3510    1.8260 C   0  0  0  0  0  0  0  0  0  0  0  0
    5.6018    0.3683    1.8553 C   0  0  0  0  0  0  0  0  0  0  0  0
    4.9783    1.4504    0.9512 C   0  0  0  0  0  0  0  0  0  0  0  0
    5.2698    1.2867   -0.5528 C   0  0  0  0  0  0  0  0  0  0  0  0
    4.5708    0.0749   -1.1923 C   0  0  0  0  0  0  0  0  0  0  0  0
    3.0777    0.2708   -1.2858 C   0  0  0  0  0  0  0  0  0  0  0  0
    2.5467    1.2014   -2.1930 C   0  0  0  0  0  0  0  0  0  0  0  0
    1.1655    1.3881   -2.2872 C   0  0  0  0  0  0  0  0  0  0  0  0
    0.2912    0.6513   -1.4799 C   0  0  0  0  0  0  0  0  0  0  0  0
   -1.0872    0.8899   -1.6091 O   0  0  0  0  0  0  0  0  0  0  0  0
   -2.1112    0.2547   -0.8409 C   0  0  0  0  0  0  0  0  0  0  0  0
   -2.1341    0.7548    0.5856 C   0  0  0  0  0  0  0  0  0  0  0  0
   -1.3956    1.6693    0.9193 O   0  0  0  0  0  0  0  0  0  0  0  0
   -3.0405    0.1488    1.6284 C   0  0  0  0  0  0  0  0  0  0  0  0
   -4.0150   -0.7760    1.0452 N   0  0  0  0  0  0  0  0  0  0  0  0
   -3.9332   -2.1282    1.0492 C   0  0  0  0  0  0  0  0  0  0  0  0
   -5.0387   -2.6851    0.4146 C   0  0  0  0  0  0  0  0  0  0  0  0
   -5.8117   -1.6130    0.0209 C   0  0  0  0  0  0  0  0  0  0  0  0
   -7.0336   -1.5778   -0.6470 C   0  0  0  0  0  0  0  0  0  0  0  0
   -7.6021   -0.3175   -0.9204 C   0  0  0  0  0  0  0  0  0  0  0  0
   -9.1651   -0.2230   -1.7269 S   0  0  0  0  0  6  0  0  0  0  0  0
   -9.2319   -1.2803   -2.7939 O   0  0  0  0  0  0  0  0  0  0  0  0
   -9.3250    1.1219   -2.3810 O   0  0  0  0  0  0  0  0  0  0  0  0
  -10.4522   -0.4795   -0.5876 N   0  0  0  0  0  0  0  0  0  0  0  0
  -10.3965    0.5378    0.4585 C   0  0  0  0  0  0  0  0  0  0  0  0
   -6.9361    0.8639   -0.5127 C   0  0  0  0  0  0  0  0  0  0  0  0
   -5.7042    0.7945    0.1618 C   0  0  0  0  0  0  0  0  0  0  0  0
   -5.1668   -0.4699    0.4147 C   0  0  0  0  0  0  0  0  0  0  0  0
    0.8212   -0.2899   -0.5742 C   0  0  0  0  0  0  0  0  0  0  0  0
    2.2045   -0.4803   -0.4833 C   0  0  0  0  0  0  0  0  0  0  0  0
    9.6220   -2.8100    0.4826 H   0  0  0  0  0  0  0  0  0  0  0  0
    9.2643   -1.8580   -1.0175 H   0  0  0  0  0  0  0  0  0  0  0  0
   10.8601   -1.6775   -0.1898 H   0  0  0  0  0  0  0  0  0  0  0  0
    9.7071   -0.7368    1.8292 H   0  0  0  0  0  0  0  0  0  0  0  0
    9.4793    0.2711    0.3462 H   0  0  0  0  0  0  0  0  0  0  0  0
    7.2306   -0.8052   -0.0261 H   0  0  0  0  0  0  0  0  0  0  0  0
    7.4456   -1.7712    1.4762 H   0  0  0  0  0  0  0  0  0  0  0  0
    7.5384    1.3204    1.4495 H   0  0  0  0  0  0  0  0  0  0  0  0
    7.5216    0.2339    2.8636 H   0  0  0  0  0  0  0  0  0  0  0  0
    5.2845    0.5929    2.8955 H   0  0  0  0  0  0  0  0  0  0  0  0
    5.1769   -0.6301    1.6219 H   0  0  0  0  0  0  0  0  0  0  0  0
    3.8789    1.4641    1.1157 H   0  0  0  0  0  0  0  0  0  0  0  0
    5.3589    2.4429    1.2758 H   0  0  0  0  0  0  0  0  0  0  0  0
    4.9425    2.2109   -1.0754 H   0  0  0  0  0  0  0  0  0  0  0  0
    6.3612    1.2167   -0.7243 H   0  0  0  0  0  0  0  0  0  0  0  0
    4.9735   -0.0710   -2.2182 H   0  0  0  0  0  0  0  0  0  0  0  0
    4.8150   -0.8502   -0.6304 H   0  0  0  0  0  0  0  0  0  0  0  0
    3.2030    1.7786   -2.8313 H   0  0  0  0  0  0  0  0  0  0  0  0
    0.7717    2.1105   -2.9914 H   0  0  0  0  0  0  0  0  0  0  0  0
   -1.9726   -0.8471   -0.8642 H   0  0  0  0  0  0  0  0  0  0  0  0
   -3.0881    0.4816   -1.3141 H   0  0  0  0  0  0  0  0  0  0  0  0
   -2.4123   -0.3866    2.3717 H   0  0  0  0  0  0  0  0  0  0  0  0
   -3.5770    0.9545    2.1743 H   0  0  0  0  0  0  0  0  0  0  0  0
   -3.1149   -2.6862    1.4865 H   0  0  0  0  0  0  0  0  0  0  0  0
   -5.2454   -3.7362    0.2590 H   0  0  0  0  0  0  0  0  0  0  0  0
   -7.5321   -2.4937   -0.9392 H   0  0  0  0  0  0  0  0  0  0  0  0
  -10.2842   -1.4075   -0.1379 H   0  0  0  0  0  0  0  0  0  0  0  0
   -9.4531    0.4585    1.0417 H   0  0  0  0  0  0  0  0  0  0  0  0
  -10.4851    1.5535    0.0173 H   0  0  0  0  0  0  0  0  0  0  0  0
  -11.2482    0.3912    1.1555 H   0  0  0  0  0  0  0  0  0  0  0  0
   -7.3756    1.8333   -0.7096 H   0  0  0  0  0  0  0  0  0  0  0  0
   -5.1964    1.6970    0.4752 H   0  0  0  0  0  0  0  0  0  0  0  0
    0.1777   -0.8755    0.0672 H   0  0  0  0  0  0  0  0  0  0  0  0
    2.5929   -1.2070    0.2211 H   0  0  0  0  0  0  0  0  0  0  0  0
  1  2  1  0
  2  3  1  0
  3  4  1  0
  4  5  1  0
  5  6  1  0
  6  7  1  0
  7  8  1  0
  8  9  1  0
  9 10  2  0
 10 11  1  0
 11 12  2  0
 12 13  1  0
 13 14  1  0
 14 15  1  0
 15 16  2  0
 15 17  1  0
 17 18  1  0
 18 19  1  0
 19 20  2  0
 20 21  1  0
 21 22  2  0
 22 23  1  0
 23 24  1  0
 24 25  2  0
 24 26  2  0
 24 27  1  0
 27 28  1  0
 23 29  2  0
 29 30  1  0
 30 31  2  0
 12 32  1  0
 32 33  2  0
 33  9  1  0
 31 18  1  0
 31 21  1  0
  1 34  1  0
  1 35  1  0
  1 36  1  0
  2 37  1  0
  2 38  1  0
  3 39  1  0
  3 40  1  0
  4 41  1  0
  4 42  1  0
  5 43  1  0
  5 44  1  0
  6 45  1  0
  6 46  1  0
  7 47  1  0
  7 48  1  0
  8 49  1  0
  8 50  1  0
 10 51  1  0
 11 52  1  0
 14 53  1  0
 14 54  1  0
 17 55  1  0
 17 56  1  0
 19 57  1  0
 20 58  1  0
 22 59  1  0
 27 60  1  0
 28 61  1  0
 28 62  1  0
 28 63  1  0
 29 64  1  0
 30 65  1  0
 32 66  1  0
 33 67  1  0
M  END
$$$$
