
     RDKit          3D

 72 77  0  0  0  0  0  0  0  0999 V2000
   -9.1126    3.7171    0.5269 C   0  0  0  0  0  0  0  0  0  0  0  0
   -7.6857    3.6041    0.2513 N   0  0  0  0  0  0  0  0  0  0  0  0
   -6.9310    2.4596    0.6533 C   0  0  0  0  0  0  0  0  0  0  0  0
   -7.1515    1.9131    1.7682 O   0  0  0  0  0  0  0  0  0  0  0  0
   -5.8684    1.9815   -0.1781 N   0  0  0  0  0  0  0  0  0  0  0  0
   -5.7554    0.5754   -0.4062 C   0  0  0  0  0  0  0  0  0  0  0  0
   -6.8807   -0.3250   -1.2877 S   0  0  0  0  0  0  0  0  0  0  0  0
   -6.0573   -1.7742   -1.0995 C   0  0  0  0  0  0  0  0  0  0  0  0
   -6.4501   -3.0311   -1.5562 C   0  0  0  0  0  0  0  0  0  0  0  0
   -5.6427   -4.1287   -1.2411 C   0  0  0  0  0  0  0  0  0  0  0  0
   -4.4731   -3.9560   -0.4771 C   0  0  0  0  0  0  0  0  0  0  0  0
   -4.1001   -2.6825   -0.0200 C   0  0  0  0  0  0  0  0  0  0  0  0
   -4.8958   -1.5785   -0.3554 C   0  0  0  0  0  0  0  0  0  0  0  0
   -4.7047   -0.2347    0.0279 C   0  0  0  0  0  0  0  0  0  0  0  0
   -3.6025    0.2572    0.8824 C   0  0  0  0  0  0  0  0  0  0  0  0
   -3.8667    1.0705    1.8164 O   0  0  0  0  0  0  0  0  0  0  0  0
   -2.2573   -0.2149    0.7140 N   0  0  0  0  0  0  0  0  0  0  0  0
   -1.4486   -0.5025    1.9064 C   0  0  0  0  0  0  0  0  0  0  0  0
   -0.3232   -1.4847    1.5659 C   0  0  0  0  0  0  0  0  0  0  0  0
    0.5750   -0.9713    0.4019 C   0  0  0  0  0  0  0  0  0  0  0  0
    1.8630   -0.4096    0.8937 N   0  0  0  0  0  0  0  0  0  0  0  0
    1.7309    0.6712    1.9014 C   0  0  0  0  0  0  0  0  0  0  0  0
    3.0858    1.3181    2.2621 C   0  0  0  0  0  0  0  0  0  0  0  0
    4.2595    0.4360    1.8330 C   0  0  0  0  0  0  0  0  0  0  0  0
    4.2115    0.1727    0.3097 C   0  0  0  0  0  0  0  0  0  0  0  0
    2.7618   -0.0146   -0.2086 C   0  0  0  0  0  0  0  0  0  0  0  0
    4.9227    1.2706   -0.4436 C   0  0  0  0  0  0  0  0  0  0  0  0
    4.5748    2.4814   -0.4585 O   0  0  0  0  0  0  0  0  0  0  0  0
    6.0888    0.7869   -1.1019 N   0  0  0  0  0  0  0  0  0  0  0  0
    6.9275    1.5165   -2.0477 C   0  0  0  0  0  0  0  0  0  0  0  0
    8.2922    0.8222   -2.1729 C   0  0  0  0  0  0  0  0  0  0  0  0
    8.1305   -0.6938   -2.3791 C   0  0  0  0  0  0  0  0  0  0  0  0
    7.3855   -1.3361   -1.2000 C   0  0  0  0  0  0  0  0  0  0  0  0
    6.1498   -0.5952   -0.9489 N   0  0  0  0  0  0  0  0  0  0  0  0
    5.1065   -0.9906   -0.0652 C   0  0  0  0  0  0  0  0  0  0  0  0
    4.9458   -2.1777    0.3241 O   0  0  0  0  0  0  0  0  0  0  0  0
   -0.1819   -0.0343   -0.5849 C   0  0  0  0  0  0  0  0  0  0  0  0
   -1.6781   -0.3624   -0.6311 C   0  0  0  0  0  0  0  0  0  0  0  0
   -9.6559    3.9194   -0.4194 H   0  0  0  0  0  0  0  0  0  0  0  0
   -9.2907    4.5505    1.2388 H   0  0  0  0  0  0  0  0  0  0  0  0
   -9.5139    2.7721    0.9575 H   0  0  0  0  0  0  0  0  0  0  0  0
   -7.2445    4.3128   -0.3807 H   0  0  0  0  0  0  0  0  0  0  0  0
   -5.5721    2.5928   -0.9700 H   0  0  0  0  0  0  0  0  0  0  0  0
   -7.3669   -3.1586   -2.1235 H   0  0  0  0  0  0  0  0  0  0  0  0
   -5.9139   -5.1198   -1.5849 H   0  0  0  0  0  0  0  0  0  0  0  0
   -3.8487   -4.8129   -0.2413 H   0  0  0  0  0  0  0  0  0  0  0  0
   -3.2176   -2.5744    0.5958 H   0  0  0  0  0  0  0  0  0  0  0  0
   -1.0436    0.4462    2.3084 H   0  0  0  0  0  0  0  0  0  0  0  0
   -2.0830   -0.9592    2.6996 H   0  0  0  0  0  0  0  0  0  0  0  0
   -0.7944   -2.4400    1.2535 H   0  0  0  0  0  0  0  0  0  0  0  0
    0.2746   -1.7250    2.4725 H   0  0  0  0  0  0  0  0  0  0  0  0
    0.8269   -1.8855   -0.1833 H   0  0  0  0  0  0  0  0  0  0  0  0
    1.0469    1.4695    1.5468 H   0  0  0  0  0  0  0  0  0  0  0  0
    1.3085    0.2581    2.8380 H   0  0  0  0  0  0  0  0  0  0  0  0
    3.1645    2.3065    1.7637 H   0  0  0  0  0  0  0  0  0  0  0  0
    3.1380    1.5037    3.3606 H   0  0  0  0  0  0  0  0  0  0  0  0
    5.2196    0.9196    2.1252 H   0  0  0  0  0  0  0  0  0  0  0  0
    4.1953   -0.5305    2.3864 H   0  0  0  0  0  0  0  0  0  0  0  0
    2.7532   -0.7846   -1.0191 H   0  0  0  0  0  0  0  0  0  0  0  0
    2.3913    0.9301   -0.6636 H   0  0  0  0  0  0  0  0  0  0  0  0
    7.0772    2.5614   -1.6853 H   0  0  0  0  0  0  0  0  0  0  0  0
    6.4250    1.5499   -3.0421 H   0  0  0  0  0  0  0  0  0  0  0  0
    8.8522    1.2579   -3.0297 H   0  0  0  0  0  0  0  0  0  0  0  0
    8.8803    1.0012   -1.2496 H   0  0  0  0  0  0  0  0  0  0  0  0
    9.1332   -1.1663   -2.4695 H   0  0  0  0  0  0  0  0  0  0  0  0
    7.5695   -0.8813   -3.3197 H   0  0  0  0  0  0  0  0  0  0  0  0
    7.1595   -2.4027   -1.4190 H   0  0  0  0  0  0  0  0  0  0  0  0
    8.0170   -1.2953   -0.2877 H   0  0  0  0  0  0  0  0  0  0  0  0
   -0.0737    1.0248   -0.2873 H   0  0  0  0  0  0  0  0  0  0  0  0
    0.2457   -0.1310   -1.6124 H   0  0  0  0  0  0  0  0  0  0  0  0
   -1.8334   -1.3933   -0.9996 H   0  0  0  0  0  0  0  0  0  0  0  0
   -2.1706    0.3285   -1.3493 H   0  0  0  0  0  0  0  0  0  0  0  0
  1  2  1  0
  2  3  1  0
  3  4  2  0
  3  5  1  0
  5  6  1  0
  6  7  1  0
  7  8  1  0
  8  9  2  0
  9 10  1  0
 10 11  2  0
 11 12  1  0
 12 13  2  0
 13 14  1  0
 14 15  1  0
 15 16  2  0
 15 17  1  0
 17 18  1  0
 18 19  1  0
 19 20  1  0
 20 21  1  0
 21 22  1  0
 22 23  1  0
 23 24  1  0
 24 25  1  0
 25 26  1  0
 25 27  1  0
 27 28  2  0
 27 29  1  0
 29 30  1  0
 30 31  1  0
 31 32  1  0
 32 33  1  0
 33 34  1  0
 34 35  1  0
 35 36  2  0
 20 37  1  0
 37 38  1  0
 14  6  2  0
 38 17  1  0
 13  8  1  0
 26 21  1  0
 34 29  1  0
 35 25  1  0
  1 39  1  0
  1 40  1  0
  1 41  1  0
  2 42  1  0
  5 43  1  0
  9 44  1  0
 10 45  1  0
 11 46  1  0
 12 47  1  0
 18 48  1  0
 18 49  1  0
 19 50  1  0
 19 51  1  0
 20 52  1  0
 22 53  1  0
 22 54  1  0
 23 55  1  0
 23 56  1  0
 24 57  1  0
 24 58  1  0
 26 59  1  0
 26 60  1  0
 30 61  1  0
 30 62  1  0
 31 63  1  0
 31 64  1  0
 32 65  1  0
 32 66  1  0
 33 67  1  0
 33 68  1  0
 37 69  1  0
 37 70  1  0
 38 71  1  0
 38 72  1  0
M  END
$$$$

     RDKit          3D

 66 71  0  0  0  0  0  0  0  0999 V2000
    9.2633   -3.0052    0.4567 C   0  0  0  0  0  0  0  0  0  0  0  0
    7.9686   -3.2954   -0.2283 C   0  0  0  0  0  0  0  0  0  0  0  0
    7.8158   -2.9680   -1.4352 O   0  0  0  0  0  0  0  0  0  0  0  0
    6.9110   -3.9475    0.4888 N   0  0  0  0  0  0  0  0  0  0  0  0
    5.3725   -4.2767   -0.2356 S   0  0  0  0  0  6  0  0  0  0  0  0
    4.6800   -5.3493    0.5550 O   0  0  0  0  0  0  0  0  0  0  0  0
    5.5599   -4.7796   -1.6382 O   0  0  0  0  0  0  0  0  0  0  0  0
    4.3966   -2.8117   -0.2384 C   0  0  0  0  0  0  0  0  0  0  0  0
    3.5488   -2.5322    0.8413 C   0  0  0  0  0  0  0  0  0  0  0  0
    2.8007   -1.3534    0.8579 C   0  0  0  0  0  0  0  0  0  0  0  0
    2.8914   -0.4378   -0.2038 C   0  0  0  0  0  0  0  0  0  0  0  0
    2.1361    0.8339   -0.1543 C   0  0  0  0  0  0  0  0  0  0  0  0
    2.7933    2.0639   -0.3349 C   0  0  0  0  0  0  0  0  0  0  0  0
    2.0999    3.2301   -0.1885 N   0  0  0  0  0  0  0  0  0  0  0  0
    0.7659    3.2564    0.1058 C   0  0  0  0  0  0  0  0  0  0  0  0
    0.0921    4.5162    0.2821 N   0  0  0  0  0  0  0  0  0  0  0  0
   -1.1100    4.8157   -0.5098 C   0  0  0  0  0  0  0  0  0  0  0  0
   -1.7948    6.1038   -0.0341 C   0  0  0  0  0  0  0  0  0  0  0  0
   -0.8509    7.1365    0.1634 O   0  0  0  0  0  0  0  0  0  0  0  0
   -0.0293    6.7983    1.2576 C   0  0  0  0  0  0  0  0  0  0  0  0
    0.8590    5.6046    0.9103 C   0  0  0  0  0  0  0  0  0  0  0  0
    0.1169    2.0262    0.2686 C   0  0  0  0  0  0  0  0  0  0  0  0
   -1.1862    1.8362    0.5639 N   0  0  0  0  0  0  0  0  0  0  0  0
   -1.3045    0.4882    0.5993 C   0  0  0  0  0  0  0  0  0  0  0  0
   -2.5960   -0.2306    0.8097 C   0  0  0  0  0  0  0  0  0  0  0  0
   -3.2722   -0.3620   -0.4367 O   0  0  0  0  0  0  0  0  0  0  0  0
   -4.5043   -1.0107   -0.5611 C   0  0  0  0  0  0  0  0  0  0  0  0
   -5.1135   -1.0923   -1.8185 C   0  0  0  0  0  0  0  0  0  0  0  0
   -6.3393   -1.7468   -1.9514 C   0  0  0  0  0  0  0  0  0  0  0  0
   -6.9500   -2.3129   -0.8260 C   0  0  0  0  0  0  0  0  0  0  0  0
   -8.1823   -2.9736   -0.9187 C   0  0  0  0  0  0  0  0  0  0  0  0
   -8.7669   -3.5255    0.2255 C   0  0  0  0  0  0  0  0  0  0  0  0
   -8.1259   -3.4226    1.4655 C   0  0  0  0  0  0  0  0  0  0  0  0
   -6.8980   -2.7640    1.5667 C   0  0  0  0  0  0  0  0  0  0  0  0
   -6.3064   -2.2079    0.4275 C   0  0  0  0  0  0  0  0  0  0  0  0
   -5.1126   -1.5666    0.5254 N   0  0  0  0  0  0  0  0  0  0  0  0
   -0.0906   -0.1110    0.3187 C   0  0  0  0  0  0  0  0  0  0  0  0
    0.8029    0.8767    0.1336 N   0  0  0  0  0  0  0  0  0  0  0  0
    3.7560   -0.7122   -1.2772 C   0  0  0  0  0  0  0  0  0  0  0  0
    4.5000   -1.8955   -1.2974 C   0  0  0  0  0  0  0  0  0  0  0  0
    9.7246   -3.9583    0.7887 H   0  0  0  0  0  0  0  0  0  0  0  0
    9.0730   -2.3661    1.3436 H   0  0  0  0  0  0  0  0  0  0  0  0
    9.9648   -2.4805   -0.2275 H   0  0  0  0  0  0  0  0  0  0  0  0
    7.0612   -4.2421    1.4807 H   0  0  0  0  0  0  0  0  0  0  0  0
    3.4865   -3.2170    1.6791 H   0  0  0  0  0  0  0  0  0  0  0  0
    2.1676   -1.1454    1.7108 H   0  0  0  0  0  0  0  0  0  0  0  0
    3.8532    2.0998   -0.5522 H   0  0  0  0  0  0  0  0  0  0  0  0
   -1.8557    3.9974   -0.4224 H   0  0  0  0  0  0  0  0  0  0  0  0
   -0.8253    4.9115   -1.5836 H   0  0  0  0  0  0  0  0  0  0  0  0
   -2.3918    5.9122    0.8899 H   0  0  0  0  0  0  0  0  0  0  0  0
   -2.5194    6.4312   -0.8127 H   0  0  0  0  0  0  0  0  0  0  0  0
   -0.6256    6.5927    2.1803 H   0  0  0  0  0  0  0  0  0  0  0  0
    0.6187    7.6719    1.4939 H   0  0  0  0  0  0  0  0  0  0  0  0
    1.6698    5.9333    0.2182 H   0  0  0  0  0  0  0  0  0  0  0  0
    1.3306    5.2365    1.8511 H   0  0  0  0  0  0  0  0  0  0  0  0
   -3.2307    0.3427    1.5215 H   0  0  0  0  0  0  0  0  0  0  0  0
   -2.3944   -1.2378    1.2380 H   0  0  0  0  0  0  0  0  0  0  0  0
   -4.6367   -0.6556   -2.6862 H   0  0  0  0  0  0  0  0  0  0  0  0
   -6.8072   -1.8079   -2.9262 H   0  0  0  0  0  0  0  0  0  0  0  0
   -8.6903   -3.0613   -1.8711 H   0  0  0  0  0  0  0  0  0  0  0  0
   -9.7175   -4.0353    0.1455 H   0  0  0  0  0  0  0  0  0  0  0  0
   -8.5754   -3.8553    2.3474 H   0  0  0  0  0  0  0  0  0  0  0  0
   -6.4073   -2.6865    2.5288 H   0  0  0  0  0  0  0  0  0  0  0  0
    0.1070   -1.1727    0.2369 H   0  0  0  0  0  0  0  0  0  0  0  0
    3.8527   -0.0144   -2.0983 H   0  0  0  0  0  0  0  0  0  0  0  0
    5.1707   -2.0885   -2.1259 H   0  0  0  0  0  0  0  0  0  0  0  0
  1  2  1  0
  2  3  2  0
  2  4  1  0
  4  5  1  0
  5  6  2  0
  5  7  2  0
  5  8  1  0
  8  9  2  0
  9 10  1  0
 10 11  2  0
 11 12  1  0
 12 13  2  0
 13 14  1  0
 14 15  2  0
 15 16  1  0
 16 17  1  0
 17 18  1  0
 18 19  1  0
 19 20  1  0
 20 21  1  0
 15 22  1  0
 22 23  2  0
 23 24  1  0
 24 25  1  0
 25 26  1  0
 26 27  1  0
 27 28  2  0
 28 29  1  0
 29 30  2  0
 30 31  1  0
 31 32  2  0
 32 33  1  0
 33 34  2  0
 34 35  1  0
 35 36  2  0
 24 37  2  0
 37 38  1  0
 11 39  1  0
 39 40  2  0
 40  8  1  0
 38 12  1  0
 21 16  1  0
 38 22  1  0
 36 27  1  0
 35 30  1  0
  1 41  1  0
  1 42  1  0
  1 43  1  0
  4 44  1  0
  9 45  1  0
 10 46  1  0
 13 47  1  0
 17 48  1  0
 17 49  1  0
 18 50  1  0
 18 51  1  0
 20 52  1  0
 20 53  1  0
 21 54  1  0
 21 55  1  0
 25 56  1  0
 25 57  1  0
 28 58  1  0
 29 59  1  0
 31 60  1  0
 32 61  1  0
 33 62  1  0
 34 63  1  0
 37 64  1  0
 39 65  1  0
 40 66  1  0
M  END
$$$$

     RDKit          3D

 75 80  0  0  0  0  0  0  0  0999 V2000
    7.9327   -1.8953    3.8571 C   0  0  0  0  0  0  0  0  0  0  0  0
    6.9663   -1.1443    3.0655 N   0  0  0  0  0  0  0  0  0  0  0  0
    6.9586   -1.1979    1.6337 C   0  0  0  0  0  0  0  0  0  0  0  0
    7.8365   -1.8713    1.0286 O   0  0  0  0  0  0  0  0  0  0  0  0
    5.9591   -0.4695    0.9033 N   0  0  0  0  0  0  0  0  0  0  0  0
    5.7749   -0.5320   -0.5228 C   0  0  0  0  0  0  0  0  0  0  0  0
    6.5247   -1.6297   -1.5746 S   0  0  0  0  0  0  0  0  0  0  0  0
    5.7245   -1.0949   -2.9481 C   0  0  0  0  0  0  0  0  0  0  0  0
    5.8648   -1.5576   -4.2543 C   0  0  0  0  0  0  0  0  0  0  0  0
    5.1017   -0.9467   -5.2602 C   0  0  0  0  0  0  0  0  0  0  0  0
    4.2267    0.1100   -4.9450 C   0  0  0  0  0  0  0  0  0  0  0  0
    4.1027    0.5618   -3.6205 C   0  0  0  0  0  0  0  0  0  0  0  0
    4.8566   -0.0624   -2.6166 C   0  0  0  0  0  0  0  0  0  0  0  0
    4.8684    0.2552   -1.2452 C   0  0  0  0  0  0  0  0  0  0  0  0
    4.0402    1.3138   -0.6370 C   0  0  0  0  0  0  0  0  0  0  0  0
    4.6179    2.2807   -0.0724 O   0  0  0  0  0  0  0  0  0  0  0  0
    2.5988    1.2471   -0.6682 N   0  0  0  0  0  0  0  0  0  0  0  0
    1.7876    2.4532   -0.4380 C   0  0  0  0  0  0  0  0  0  0  0  0
    0.7935    2.2440    0.7197 C   0  0  0  0  0  0  0  0  0  0  0  0
    0.2996    0.7720    0.8401 C   0  0  0  0  0  0  0  0  0  0  0  0
   -1.0618    0.6240    1.4239 N   0  0  0  0  0  0  0  0  0  0  0  0
   -1.1167    1.1127    2.8178 C   0  0  0  0  0  0  0  0  0  0  0  0
   -2.4124    0.6511    3.4913 C   0  0  0  0  0  0  0  0  0  0  0  0
   -3.6399    1.1147    2.6973 C   0  0  0  0  0  0  0  0  0  0  0  0
   -3.5253    0.7564    1.2001 C   0  0  0  0  0  0  0  0  0  0  0  0
   -2.1662    1.2003    0.6218 C   0  0  0  0  0  0  0  0  0  0  0  0
   -3.7974   -0.7054    0.9370 C   0  0  0  0  0  0  0  0  0  0  0  0
   -3.0961   -1.6540    1.3821 O   0  0  0  0  0  0  0  0  0  0  0  0
   -4.9451   -0.9086    0.1143 N   0  0  0  0  0  0  0  0  0  0  0  0
   -5.6833   -2.1751    0.0686 C   0  0  0  0  0  0  0  0  0  0  0  0
   -6.4564   -2.3334   -1.2438 C   0  0  0  0  0  0  0  0  0  0  0  0
   -7.8309   -1.6400   -1.2289 C   0  0  0  0  0  0  0  0  0  0  0  0
   -7.8379   -0.2170   -0.6444 C   0  0  0  0  0  0  0  0  0  0  0  0
   -6.6219    0.6110   -1.0653 C   0  0  0  0  0  0  0  0  0  0  0  0
   -5.4871    0.3511   -0.1767 N   0  0  0  0  0  0  0  0  0  0  0  0
   -4.6679    1.3498    0.4238 C   0  0  0  0  0  0  0  0  0  0  0  0
   -4.8854    2.5862    0.3076 O   0  0  0  0  0  0  0  0  0  0  0  0
    0.4434    0.0139   -0.4947 C   0  0  0  0  0  0  0  0  0  0  0  0
    1.9246   -0.0447   -0.8969 C   0  0  0  0  0  0  0  0  0  0  0  0
    7.7626   -1.7083    4.9387 H   0  0  0  0  0  0  0  0  0  0  0  0
    8.9634   -1.5760    3.5957 H   0  0  0  0  0  0  0  0  0  0  0  0
    7.8176   -2.9814    3.6579 H   0  0  0  0  0  0  0  0  0  0  0  0
    6.2554   -0.5610    3.5610 H   0  0  0  0  0  0  0  0  0  0  0  0
    5.3120    0.1366    1.4553 H   0  0  0  0  0  0  0  0  0  0  0  0
    6.5471   -2.3647   -4.4895 H   0  0  0  0  0  0  0  0  0  0  0  0
    5.1918   -1.2853   -6.2838 H   0  0  0  0  0  0  0  0  0  0  0  0
    3.6475    0.5799   -5.7285 H   0  0  0  0  0  0  0  0  0  0  0  0
    3.4331    1.3799   -3.3898 H   0  0  0  0  0  0  0  0  0  0  0  0
    2.4175    3.3435   -0.2259 H   0  0  0  0  0  0  0  0  0  0  0  0
    1.2212    2.6790   -1.3675 H   0  0  0  0  0  0  0  0  0  0  0  0
    1.2892    2.5305    1.6719 H   0  0  0  0  0  0  0  0  0  0  0  0
   -0.0429    2.9522    0.5722 H   0  0  0  0  0  0  0  0  0  0  0  0
    1.0070    0.2582    1.5327 H   0  0  0  0  0  0  0  0  0  0  0  0
   -0.2657    0.7038    3.4057 H   0  0  0  0  0  0  0  0  0  0  0  0
   -1.0555    2.2242    2.8517 H   0  0  0  0  0  0  0  0  0  0  0  0
   -2.4120   -0.4557    3.5796 H   0  0  0  0  0  0  0  0  0  0  0  0
   -2.4613    1.0700    4.5191 H   0  0  0  0  0  0  0  0  0  0  0  0
   -3.7278    2.2187    2.8051 H   0  0  0  0  0  0  0  0  0  0  0  0
   -4.5562    0.6620    3.1359 H   0  0  0  0  0  0  0  0  0  0  0  0
   -2.1249    2.3110    0.6275 H   0  0  0  0  0  0  0  0  0  0  0  0
   -2.1109    0.8625   -0.4332 H   0  0  0  0  0  0  0  0  0  0  0  0
   -6.3666   -2.2459    0.9425 H   0  0  0  0  0  0  0  0  0  0  0  0
   -4.9605   -3.0164    0.1415 H   0  0  0  0  0  0  0  0  0  0  0  0
   -5.8417   -1.9575   -2.0907 H   0  0  0  0  0  0  0  0  0  0  0  0
   -6.6235   -3.4164   -1.4302 H   0  0  0  0  0  0  0  0  0  0  0  0
   -8.2105   -1.6024   -2.2734 H   0  0  0  0  0  0  0  0  0  0  0  0
   -8.5446   -2.2608   -0.6451 H   0  0  0  0  0  0  0  0  0  0  0  0
   -8.7615    0.2949   -0.9919 H   0  0  0  0  0  0  0  0  0  0  0  0
   -7.8939   -0.2616    0.4654 H   0  0  0  0  0  0  0  0  0  0  0  0
   -6.3365    0.3917   -2.1159 H   0  0  0  0  0  0  0  0  0  0  0  0
   -6.8934    1.6870   -1.0191 H   0  0  0  0  0  0  0  0  0  0  0  0
    0.0416   -1.0193   -0.3987 H   0  0  0  0  0  0  0  0  0  0  0  0
   -0.1151    0.5334   -1.3025 H   0  0  0  0  0  0  0  0  0  0  0  0
    2.4218   -0.8318   -0.2869 H   0  0  0  0  0  0  0  0  0  0  0  0
    2.0043   -0.3305   -1.9671 H   0  0  0  0  0  0  0  0  0  0  0  0
  1  2  1  0
  2  3  1  0
  3  4  2  0
  3  5  1  0
  5  6  1  0
  6  7  1  0
  7  8  1  0
  8  9  2  0
  9 10  1  0
 10 11  2  0
 11 12  1  0
 12 13  2  0
 13 14  1  0
 14 15  1  0
 15 16  2  0
 15 17  1  0
 17 18  1  0
 18 19  1  0
 19 20  1  0
 20 21  1  0
 21 22  1  0
 22 23  1  0
 23 24  1  0
 24 25  1  0
 25 26  1  0
 25 27  1  0
 27 28  2  0
 27 29  1  0
 29 30  1  0
 30 31  1  0
 31 32  1  0
 32 33  1  0
 33 34  1  0
 34 35  1  0
 35 36  1  0
 36 37  2  0
 20 38  1  0
 38 39  1  0
 14  6  2  0
 39 17  1  0
 13  8  1  0
 26 21  1  0
 35 29  1  0
 36 25  1  0
  1 40  1  0
  1 41  1  0
  1 42  1  0
  2 43  1  0
  5 44  1  0
  9 45  1  0
 10 46  1  0
 11 47  1  0
 12 48  1  0
 18 49  1  0
 18 50  1  0
 19 51  1  0
 19 52  1  0
 20 53  1  0
 22 54  1  0
 22 55  1  0
 23 56  1  0
 23 57  1  0
 24 58  1  0
 24 59  1  0
 26 60  1  0
 26 61  1  0
 30 62  1  0
 30 63  1  0
 31 64  1  0
 31 65  1  0
 32 66  1  0
 32 67  1  0
 33 68  1  0
 33 69  1  0
 34 70  1  0
 34 71  1  0
 38 72  1  0
 38 73  1  0
 39 74  1  0
 39 75  1  0
M  END
$$$$

     RDKit          3D

 61 66  0  0  0  0  0  0  0  0999 V2000
   -6.2820   -5.9842    1.0209 N   0  0  0  0  0  0  0  0  0  0  0  0
   -4.5574   -5.8637    1.0373 S   0  0  0  0  0  6  0  0  0  0  0  0
   -3.9746   -6.8107    0.0268 O   0  0  0  0  0  0  0  0  0  0  0  0
   -4.0576   -6.2289    2.4082 O   0  0  0  0  0  0  0  0  0  0  0  0
   -4.0793   -4.2166    0.6416 C   0  0  0  0  0  0  0  0  0  0  0  0
   -3.0058   -3.6094    1.2962 C   0  0  0  0  0  0  0  0  0  0  0  0
   -2.6415   -2.2967    0.9796 C   0  0  0  0  0  0  0  0  0  0  0  0
   -3.3334   -1.5803   -0.0094 C   0  0  0  0  0  0  0  0  0  0  0  0
   -2.9574   -0.1815   -0.3262 C   0  0  0  0  0  0  0  0  0  0  0  0
   -3.9383    0.8272   -0.3799 C   0  0  0  0  0  0  0  0  0  0  0  0
   -3.5712    2.1217   -0.6082 N   0  0  0  0  0  0  0  0  0  0  0  0
   -2.2695    2.4846   -0.7988 C   0  0  0  0  0  0  0  0  0  0  0  0
   -1.9269    3.8679   -1.0010 N   0  0  0  0  0  0  0  0  0  0  0  0
   -0.9887    4.5164   -0.0764 C   0  0  0  0  0  0  0  0  0  0  0  0
   -0.4442    5.8061   -0.6979 C   0  0  0  0  0  0  0  0  0  0  0  0
   -1.4978    6.6365   -1.1476 O   0  0  0  0  0  0  0  0  0  0  0  0
   -2.2015    5.9955   -2.1935 C   0  0  0  0  0  0  0  0  0  0  0  0
   -2.8938    4.7309   -1.6875 C   0  0  0  0  0  0  0  0  0  0  0  0
   -1.3045    1.4706   -0.7830 C   0  0  0  0  0  0  0  0  0  0  0  0
    0.0205    1.6225   -0.9879 N   0  0  0  0  0  0  0  0  0  0  0  0
    0.4976    0.3611   -0.8845 C   0  0  0  0  0  0  0  0  0  0  0  0
    1.9515    0.0243   -0.8826 C   0  0  0  0  0  0  0  0  0  0  0  0
    2.4311    0.0533    0.4566 O   0  0  0  0  0  0  0  0  0  0  0  0
    3.7543   -0.2372    0.8013 C   0  0  0  0  0  0  0  0  0  0  0  0
    4.1450   -0.1633    2.1420 C   0  0  0  0  0  0  0  0  0  0  0  0
    5.4637   -0.4547    2.4972 C   0  0  0  0  0  0  0  0  0  0  0  0
    6.3845   -0.8200    1.5089 C   0  0  0  0  0  0  0  0  0  0  0  0
    7.7172   -1.1209    1.8287 C   0  0  0  0  0  0  0  0  0  0  0  0
    8.6154   -1.4747    0.8143 C   0  0  0  0  0  0  0  0  0  0  0  0
    8.1877   -1.5346   -0.5162 C   0  0  0  0  0  0  0  0  0  0  0  0
    6.8588   -1.2426   -0.8416 C   0  0  0  0  0  0  0  0  0  0  0  0
    5.9539   -0.8828    0.1640 C   0  0  0  0  0  0  0  0  0  0  0  0
    4.6623   -0.5927   -0.1499 N   0  0  0  0  0  0  0  0  0  0  0  0
   -0.5308   -0.5237   -0.6164 C   0  0  0  0  0  0  0  0  0  0  0  0
   -1.6650    0.1958   -0.5508 N   0  0  0  0  0  0  0  0  0  0  0  0
   -4.4134   -2.1922   -0.6592 C   0  0  0  0  0  0  0  0  0  0  0  0
   -4.7800   -3.5035   -0.3408 C   0  0  0  0  0  0  0  0  0  0  0  0
   -6.6279   -5.4499    1.8462 H   0  0  0  0  0  0  0  0  0  0  0  0
   -6.5149   -6.9856    1.2038 H   0  0  0  0  0  0  0  0  0  0  0  0
   -2.4611   -4.1417    2.0664 H   0  0  0  0  0  0  0  0  0  0  0  0
   -1.8322   -1.8338    1.5271 H   0  0  0  0  0  0  0  0  0  0  0  0
   -4.9818    0.5947   -0.2126 H   0  0  0  0  0  0  0  0  0  0  0  0
   -1.5216    4.7611    0.8695 H   0  0  0  0  0  0  0  0  0  0  0  0
   -0.1369    3.8511    0.1789 H   0  0  0  0  0  0  0  0  0  0  0  0
    0.2720    5.5856   -1.5243 H   0  0  0  0  0  0  0  0  0  0  0  0
    0.1234    6.3523    0.0872 H   0  0  0  0  0  0  0  0  0  0  0  0
   -1.5249    5.7561   -3.0435 H   0  0  0  0  0  0  0  0  0  0  0  0
   -2.9750    6.6936   -2.5798 H   0  0  0  0  0  0  0  0  0  0  0  0
   -3.7004    5.0116   -0.9794 H   0  0  0  0  0  0  0  0  0  0  0  0
   -3.3468    4.1945   -2.5487 H   0  0  0  0  0  0  0  0  0  0  0  0
    2.5048    0.7652   -1.4945 H   0  0  0  0  0  0  0  0  0  0  0  0
    2.1025   -0.9861   -1.3188 H   0  0  0  0  0  0  0  0  0  0  0  0
    3.4305    0.1187    2.9039 H   0  0  0  0  0  0  0  0  0  0  0  0
    5.7620   -0.3947    3.5373 H   0  0  0  0  0  0  0  0  0  0  0  0
    8.0624   -1.0802    2.8556 H   0  0  0  0  0  0  0  0  0  0  0  0
    9.6457   -1.7010    1.0586 H   0  0  0  0  0  0  0  0  0  0  0  0
    8.8887   -1.8068   -1.2972 H   0  0  0  0  0  0  0  0  0  0  0  0
    6.5375   -1.2960   -1.8747 H   0  0  0  0  0  0  0  0  0  0  0  0
   -0.4460   -1.5921   -0.4753 H   0  0  0  0  0  0  0  0  0  0  0  0
   -4.9745   -1.6566   -1.4143 H   0  0  0  0  0  0  0  0  0  0  0  0
   -5.6145   -3.9592   -0.8552 H   0  0  0  0  0  0  0  0  0  0  0  0
  1  2  1  0
  2  3  2  0
  2  4  2  0
  2  5  1  0
  5  6  2  0
  6  7  1  0
  7  8  2  0
  8  9  1  0
  9 10  2  0
 10 11  1  0
 11 12  2  0
 12 13  1  0
 13 14  1  0
 14 15  1  0
 15 16  1  0
 16 17  1  0
 17 18  1  0
 12 19  1  0
 19 20  2  0
 20 21  1  0
 21 22  1  0
 22 23  1  0
 23 24  1  0
 24 25  2  0
 25 26  1  0
 26 27  2  0
 27 28  1  0
 28 29  2  0
 29 30  1  0
 30 31  2  0
 31 32  1  0
 32 33  2  0
 21 34  2  0
 34 35  1  0
  8 36  1  0
 36 37  2  0
 37  5  1  0
 35  9  1  0
 18 13  1  0
 35 19  1  0
 33 24  1  0
 32 27  1  0
  1 38  1  0
  1 39  1  0
  6 40  1  0
  7 41  1  0
 10 42  1  0
 14 43  1  0
 14 44  1  0
 15 45  1  0
 15 46  1  0
 17 47  1  0
 17 48  1  0
 18 49  1  0
 18 50  1  0
 22 51  1  0
 22 52  1  0
 25 53  1  0
 26 54  1  0
 28 55  1  0
 29 56  1  0
 30 57  1  0
 31 58  1  0
 34 59  1  0
 36 60  1  0
 37 61  1  0
M  END
$$$$

     RDKit          3D

 72 77  0  0  0  0  0  0  0  0999 V2000
    7.8642   -2.6047   -4.0842 C   0  0  0  0  0  0  0  0  0  0  0  0
    6.9942   -3.4664   -3.1744 C   0  0  0  0  0  0  0  0  0  0  0  0
    5.9225   -2.6704   -2.5768 N   0  0  0  0  0  0  0  0  0  0  0  0
    6.1579   -1.7055   -1.5412 C   0  0  0  0  0  0  0  0  0  0  0  0
    7.3191   -1.5591   -1.0725 O   0  0  0  0  0  0  0  0  0  0  0  0
    5.0676   -0.9032   -1.0611 N   0  0  0  0  0  0  0  0  0  0  0  0
    5.1664    0.0435    0.0186 C   0  0  0  0  0  0  0  0  0  0  0  0
    6.3902    0.0805    1.1903 S   0  0  0  0  0  0  0  0  0  0  0  0
    5.7261    1.3508    2.0607 C   0  0  0  0  0  0  0  0  0  0  0  0
    6.2374    1.9630    3.2026 C   0  0  0  0  0  0  0  0  0  0  0  0
    5.5260    3.0382    3.7539 C   0  0  0  0  0  0  0  0  0  0  0  0
    4.3325    3.4825    3.1547 C   0  0  0  0  0  0  0  0  0  0  0  0
    3.8348    2.8502    2.0033 C   0  0  0  0  0  0  0  0  0  0  0  0
    4.5401    1.7639    1.4651 C   0  0  0  0  0  0  0  0  0  0  0  0
    4.2047    1.0189    0.3172 C   0  0  0  0  0  0  0  0  0  0  0  0
    2.9926    1.2485   -0.4949 C   0  0  0  0  0  0  0  0  0  0  0  0
    3.1216    1.4354   -1.7359 O   0  0  0  0  0  0  0  0  0  0  0  0
    1.6790    1.2572    0.1000 N   0  0  0  0  0  0  0  0  0  0  0  0
    1.3995    0.5369    1.3473 C   0  0  0  0  0  0  0  0  0  0  0  0
    0.0881   -0.2426    1.2214 C   0  0  0  0  0  0  0  0  0  0  0  0
   -1.0835    0.6693    0.7816 C   0  0  0  0  0  0  0  0  0  0  0  0
   -2.3335   -0.1506    0.7086 N   0  0  0  0  0  0  0  0  0  0  0  0
   -2.9483   -0.2926    2.0496 C   0  0  0  0  0  0  0  0  0  0  0  0
   -3.9692   -1.4428    2.0649 C   0  0  0  0  0  0  0  0  0  0  0  0
   -4.5489   -1.7357    0.6729 C   0  0  0  0  0  0  0  0  0  0  0  0
   -4.6881   -0.4569   -0.1780 C   0  0  0  0  0  0  0  0  0  0  0  0
   -3.3573    0.3580   -0.2426 C   0  0  0  0  0  0  0  0  0  0  0  0
   -5.2033   -0.8044   -1.5549 C   0  0  0  0  0  0  0  0  0  0  0  0
   -4.6334   -1.5934   -2.3573 O   0  0  0  0  0  0  0  0  0  0  0  0
   -6.4578   -0.1924   -1.8292 N   0  0  0  0  0  0  0  0  0  0  0  0
   -7.5825   -0.8344   -2.4777 C   0  0  0  0  0  0  0  0  0  0  0  0
   -8.8120   -0.3656   -1.6755 C   0  0  0  0  0  0  0  0  0  0  0  0
   -8.2757    0.4999   -0.5184 C   0  0  0  0  0  0  0  0  0  0  0  0
   -6.8433    0.5408   -0.7247 N   0  0  0  0  0  0  0  0  0  0  0  0
   -5.8525    0.3908    0.2860 C   0  0  0  0  0  0  0  0  0  0  0  0
   -5.9643    0.8999    1.4335 O   0  0  0  0  0  0  0  0  0  0  0  0
   -0.6879    1.3434   -0.5635 C   0  0  0  0  0  0  0  0  0  0  0  0
    0.6247    2.1228   -0.4369 C   0  0  0  0  0  0  0  0  0  0  0  0
    7.2383   -2.1244   -4.8669 H   0  0  0  0  0  0  0  0  0  0  0  0
    8.6289   -3.2404   -4.5795 H   0  0  0  0  0  0  0  0  0  0  0  0
    8.3838   -1.8180   -3.4975 H   0  0  0  0  0  0  0  0  0  0  0  0
    6.5485   -4.2841   -3.7810 H   0  0  0  0  0  0  0  0  0  0  0  0
    7.6150   -3.9284   -2.3766 H   0  0  0  0  0  0  0  0  0  0  0  0
    4.9416   -2.8441   -2.8919 H   0  0  0  0  0  0  0  0  0  0  0  0
    4.1498   -1.0005   -1.5501 H   0  0  0  0  0  0  0  0  0  0  0  0
    7.1624    1.6232    3.6497 H   0  0  0  0  0  0  0  0  0  0  0  0
    5.9002    3.5337    4.6398 H   0  0  0  0  0  0  0  0  0  0  0  0
    3.7975    4.3204    3.5821 H   0  0  0  0  0  0  0  0  0  0  0  0
    2.9247    3.2129    1.5440 H   0  0  0  0  0  0  0  0  0  0  0  0
    2.2119   -0.1845    1.5813 H   0  0  0  0  0  0  0  0  0  0  0  0
    1.3241    1.2621    2.1853 H   0  0  0  0  0  0  0  0  0  0  0  0
    0.2195   -1.0567    0.4753 H   0  0  0  0  0  0  0  0  0  0  0  0
   -0.1166   -0.7217    2.1990 H   0  0  0  0  0  0  0  0  0  0  0  0
   -1.2096    1.4834    1.5336 H   0  0  0  0  0  0  0  0  0  0  0  0
   -3.4454    0.6588    2.3452 H   0  0  0  0  0  0  0  0  0  0  0  0
   -2.1928   -0.5008    2.8345 H   0  0  0  0  0  0  0  0  0  0  0  0
   -4.7933   -1.1907    2.7674 H   0  0  0  0  0  0  0  0  0  0  0  0
   -3.4826   -2.3666    2.4479 H   0  0  0  0  0  0  0  0  0  0  0  0
   -3.8609   -2.4383    0.1508 H   0  0  0  0  0  0  0  0  0  0  0  0
   -5.5301   -2.2509    0.7785 H   0  0  0  0  0  0  0  0  0  0  0  0
   -3.5556    1.4369   -0.0488 H   0  0  0  0  0  0  0  0  0  0  0  0
   -2.9522    0.2784   -1.2748 H   0  0  0  0  0  0  0  0  0  0  0  0
   -7.4844   -1.9413   -2.4196 H   0  0  0  0  0  0  0  0  0  0  0  0
   -7.6434   -0.5113   -3.5395 H   0  0  0  0  0  0  0  0  0  0  0  0
   -9.4866    0.2355   -2.3232 H   0  0  0  0  0  0  0  0  0  0  0  0
   -9.3740   -1.2389   -1.2800 H   0  0  0  0  0  0  0  0  0  0  0  0
   -8.6897    1.5284   -0.5729 H   0  0  0  0  0  0  0  0  0  0  0  0
   -8.5182    0.0408    0.4648 H   0  0  0  0  0  0  0  0  0  0  0  0
   -0.5745    0.5707   -1.3564 H   0  0  0  0  0  0  0  0  0  0  0  0
   -1.4651    2.0696   -0.8826 H   0  0  0  0  0  0  0  0  0  0  0  0
    0.4809    2.9876    0.2472 H   0  0  0  0  0  0  0  0  0  0  0  0
    0.9003    2.5252   -1.4362 H   0  0  0  0  0  0  0  0  0  0  0  0
  1  2  1  0
  2  3  1  0
  3  4  1  0
  4  5  2  0
  4  6  1  0
  6  7  1  0
  7  8  1  0
  8  9  1  0
  9 10  2  0
 10 11  1  0
 11 12  2  0
 12 13  1  0
 13 14  2  0
 14 15  1  0
 15 16  1  0
 16 17  2  0
 16 18  1  0
 18 19  1  0
 19 20  1  0
 20 21  1  0
 21 22  1  0
 22 23  1  0
 23 24  1  0
 24 25  1  0
 25 26  1  0
 26 27  1  0
 26 28  1  0
 28 29  2  0
 28 30  1  0
 30 31  1  0
 31 32  1  0
 32 33  1  0
 33 34  1  0
 34 35  1  0
 35 36  2  0
 21 37  1  0
 37 38  1  0
 15  7  2  0
 38 18  1  0
 14  9  1  0
 27 22  1  0
 34 30  1  0
 35 26  1  0
  1 39  1  0
  1 40  1  0
  1 41  1  0
  2 42  1  0
  2 43  1  0
  3 44  1  0
  6 45  1  0
 10 46  1  0
 11 47  1  0
 12 48  1  0
 13 49  1  0
 19 50  1  0
 19 51  1  0
 20 52  1  0
 20 53  1  0
 21 54  1  0
 23 55  1  0
 23 56  1  0
 24 57  1  0
 24 58  1  0
 25 59  1  0
 25 60  1  0
 27 61  1  0
 27 62  1  0
 31 63  1  0
 31 64  1  0
 32 65  1  0
 32 66  1  0
 33 67  1  0
 33 68  1  0
 37 69  1  0
 37 70  1  0
 38 71  1  0
 38 72  1  0
M  END
$$$$

     RDKit          3D

 63 68  0  0  0  0  0  0  0  0999 V2000
    5.1494    6.0454   -1.6542 O   0  0  0  0  0  0  0  0  0  0  0  0
    6.1058    5.2557   -1.8780 C   0  0  0  0  0  0  0  0  0  0  0  0
    6.4000    4.8732   -3.1834 O   0  0  0  0  0  0  0  0  0  0  0  0
    6.9205    4.7256   -0.7418 C   0  0  0  0  0  0  0  0  0  0  0  0
    6.0496    4.1822    0.2986 N   0  0  0  0  0  0  0  0  0  0  0  0
    5.2660    2.9940    0.1113 C   0  0  0  0  0  0  0  0  0  0  0  0
    4.3158    2.6221    1.0640 C   0  0  0  0  0  0  0  0  0  0  0  0
    3.5460    1.4766    0.8580 C   0  0  0  0  0  0  0  0  0  0  0  0
    3.7147    0.7120   -0.3041 C   0  0  0  0  0  0  0  0  0  0  0  0
    2.9084   -0.5125   -0.5277 C   0  0  0  0  0  0  0  0  0  0  0  0
    3.5258   -1.7254   -0.8873 C   0  0  0  0  0  0  0  0  0  0  0  0
    2.7711   -2.8560   -1.0245 N   0  0  0  0  0  0  0  0  0  0  0  0
    1.4194   -2.8590   -0.8308 C   0  0  0  0  0  0  0  0  0  0  0  0
    0.6685   -4.0766   -0.9922 N   0  0  0  0  0  0  0  0  0  0  0  0
   -0.1601   -4.5740    0.1133 C   0  0  0  0  0  0  0  0  0  0  0  0
   -1.1980   -5.5736   -0.4153 C   0  0  0  0  0  0  0  0  0  0  0  0
   -0.5799   -6.5797   -1.1996 O   0  0  0  0  0  0  0  0  0  0  0  0
   -0.0120   -5.9993   -2.3574 C   0  0  0  0  0  0  0  0  0  0  0  0
    1.1327   -5.0565   -1.9796 C   0  0  0  0  0  0  0  0  0  0  0  0
    0.8090   -1.6408   -0.5093 C   0  0  0  0  0  0  0  0  0  0  0  0
   -0.5127   -1.4250   -0.3334 N   0  0  0  0  0  0  0  0  0  0  0  0
   -0.5774   -0.0945   -0.0863 C   0  0  0  0  0  0  0  0  0  0  0  0
   -1.8217    0.6375    0.3058 C   0  0  0  0  0  0  0  0  0  0  0  0
   -2.9774   -0.1406    0.0126 O   0  0  0  0  0  0  0  0  0  0  0  0
   -4.2568    0.2349    0.4361 C   0  0  0  0  0  0  0  0  0  0  0  0
   -5.3584   -0.5516    0.0867 C   0  0  0  0  0  0  0  0  0  0  0  0
   -6.6316   -0.1970    0.5352 C   0  0  0  0  0  0  0  0  0  0  0  0
   -6.7961    0.9430    1.3329 C   0  0  0  0  0  0  0  0  0  0  0  0
   -8.0563    1.3183    1.8230 C   0  0  0  0  0  0  0  0  0  0  0  0
   -8.1829    2.4566    2.6234 C   0  0  0  0  0  0  0  0  0  0  0  0
   -7.0564    3.2253    2.9369 C   0  0  0  0  0  0  0  0  0  0  0  0
   -5.7978    2.8614    2.4498 C   0  0  0  0  0  0  0  0  0  0  0  0
   -5.6615    1.7209    1.6532 C   0  0  0  0  0  0  0  0  0  0  0  0
   -4.4363    1.3495    1.1992 N   0  0  0  0  0  0  0  0  0  0  0  0
    0.6858    0.4646   -0.1107 C   0  0  0  0  0  0  0  0  0  0  0  0
    1.5530   -0.5276   -0.3745 N   0  0  0  0  0  0  0  0  0  0  0  0
    4.6955    1.1061   -1.2216 C   0  0  0  0  0  0  0  0  0  0  0  0
    5.4332    2.2269   -0.9995 N   0  0  0  0  0  0  0  0  0  0  0  0
    5.8553    5.2205   -3.9694 H   0  0  0  0  0  0  0  0  0  0  0  0
    7.5240    5.5592   -0.3223 H   0  0  0  0  0  0  0  0  0  0  0  0
    7.6191    3.9407   -1.1006 H   0  0  0  0  0  0  0  0  0  0  0  0
    5.9516    4.7191    1.1899 H   0  0  0  0  0  0  0  0  0  0  0  0
    4.1756    3.2118    1.9592 H   0  0  0  0  0  0  0  0  0  0  0  0
    2.8277    1.1799    1.6107 H   0  0  0  0  0  0  0  0  0  0  0  0
    4.5988   -1.7798   -1.0304 H   0  0  0  0  0  0  0  0  0  0  0  0
    0.4929   -5.0743    0.8582 H   0  0  0  0  0  0  0  0  0  0  0  0
   -0.6912   -3.7464    0.6289 H   0  0  0  0  0  0  0  0  0  0  0  0
   -1.7072   -6.0576    0.4442 H   0  0  0  0  0  0  0  0  0  0  0  0
   -1.9897   -5.0375   -0.9948 H   0  0  0  0  0  0  0  0  0  0  0  0
    0.3942   -6.8136   -2.9954 H   0  0  0  0  0  0  0  0  0  0  0  0
   -0.7811   -5.4616   -2.9592 H   0  0  0  0  0  0  0  0  0  0  0  0
    1.9678   -5.6477   -1.5461 H   0  0  0  0  0  0  0  0  0  0  0  0
    1.5000   -4.5390   -2.8933 H   0  0  0  0  0  0  0  0  0  0  0  0
   -1.8750    1.6053   -0.2420 H   0  0  0  0  0  0  0  0  0  0  0  0
   -1.7716    0.8425    1.3977 H   0  0  0  0  0  0  0  0  0  0  0  0
   -5.2264   -1.4345   -0.5225 H   0  0  0  0  0  0  0  0  0  0  0  0
   -7.4811   -0.8145    0.2674 H   0  0  0  0  0  0  0  0  0  0  0  0
   -8.9366    0.7327    1.5896 H   0  0  0  0  0  0  0  0  0  0  0  0
   -9.1552    2.7456    2.9981 H   0  0  0  0  0  0  0  0  0  0  0  0
   -7.1595    4.1067    3.5548 H   0  0  0  0  0  0  0  0  0  0  0  0
   -4.9319    3.4632    2.6957 H   0  0  0  0  0  0  0  0  0  0  0  0
    0.9373    1.5048    0.0509 H   0  0  0  0  0  0  0  0  0  0  0  0
    4.8652    0.5324   -2.1199 H   0  0  0  0  0  0  0  0  0  0  0  0
  1  2  2  0
  2  3  1  0
  2  4  1  0
  4  5  1  0
  5  6  1  0
  6  7  2  0
  7  8  1  0
  8  9  2  0
  9 10  1  0
 10 11  2  0
 11 12  1  0
 12 13  2  0
 13 14  1  0
 14 15  1  0
 15 16  1  0
 16 17  1  0
 17 18  1  0
 18 19  1  0
 13 20  1  0
 20 21  2  0
 21 22  1  0
 22 23  1  0
 23 24  1  0
 24 25  1  0
 25 26  2  0
 26 27  1  0
 27 28  2  0
 28 29  1  0
 29 30  2  0
 30 31  1  0
 31 32  2  0
 32 33  1  0
 33 34  2  0
 22 35  2  0
 35 36  1  0
  9 37  1  0
 37 38  2  0
 38  6  1  0
 36 10  1  0
 19 14  1  0
 36 20  1  0
 34 25  1  0
 33 28  1  0
  3 39  1  0
  4 40  1  0
  4 41  1  0
  5 42  1  0
  7 43  1  0
  8 44  1  0
 11 45  1  0
 15 46  1  0
 15 47  1  0
 16 48  1  0
 16 49  1  0
 18 50  1  0
 18 51  1  0
 19 52  1  0
 19 53  1  0
 23 54  1  0
 23 55  1  0
 26 56  1  0
 27 57  1  0
 29 58  1  0
 30 59  1  0
 31 60  1  0
 32 61  1  0
 35 62  1  0
 37 63  1  0
M  END
$$$$

     RDKit          3D

 76 81  0  0  0  0  0  0  0  0999 V2000
    1.5182   -4.4637    1.5020 C   0  0  0  0  0  0  0  0  0  0  0  0
    2.7258   -4.0804    0.7765 N   0  0  0  0  0  0  0  0  0  0  0  0
    3.2174   -2.7346    0.7204 C   0  0  0  0  0  0  0  0  0  0  0  0
    2.6321   -1.8171    1.3574 O   0  0  0  0  0  0  0  0  0  0  0  0
    4.4020   -2.4456   -0.0335 N   0  0  0  0  0  0  0  0  0  0  0  0
    4.8643   -1.1143   -0.2954 C   0  0  0  0  0  0  0  0  0  0  0  0
    6.4818   -0.6510   -0.1695 S   0  0  0  0  0  0  0  0  0  0  0  0
    6.2165    0.9417   -0.6384 C   0  0  0  0  0  0  0  0  0  0  0  0
    7.1635    1.9563   -0.7927 C   0  0  0  0  0  0  0  0  0  0  0  0
    8.5091    1.6958   -0.4941 O   0  0  0  0  0  0  0  0  0  0  0  0
    9.5592    2.6463   -0.6354 C   0  0  0  0  0  0  0  0  0  0  0  0
    6.7111    3.2105   -1.2558 C   0  0  0  0  0  0  0  0  0  0  0  0
    5.3535    3.4092   -1.5620 C   0  0  0  0  0  0  0  0  0  0  0  0
    4.4264    2.3696   -1.4040 C   0  0  0  0  0  0  0  0  0  0  0  0
    4.8674    1.1301   -0.9209 C   0  0  0  0  0  0  0  0  0  0  0  0
    4.0885   -0.0285   -0.7276 C   0  0  0  0  0  0  0  0  0  0  0  0
    2.6524   -0.1226   -1.0580 C   0  0  0  0  0  0  0  0  0  0  0  0
    2.2639   -1.0457   -1.8244 O   0  0  0  0  0  0  0  0  0  0  0  0
    1.6971    0.8154   -0.5284 N   0  0  0  0  0  0  0  0  0  0  0  0
    1.9181    1.4780    0.7661 C   0  0  0  0  0  0  0  0  0  0  0  0
    0.6285    1.4385    1.5987 C   0  0  0  0  0  0  0  0  0  0  0  0
   -0.6571    1.9097    0.8371 C   0  0  0  0  0  0  0  0  0  0  0  0
   -1.7430    0.8912    0.9985 N   0  0  0  0  0  0  0  0  0  0  0  0
   -2.1752    0.7738    2.4258 C   0  0  0  0  0  0  0  0  0  0  0  0
   -3.5895    1.3043    2.6907 C   0  0  0  0  0  0  0  0  0  0  0  0
   -4.6256    0.5388    1.8624 C   0  0  0  0  0  0  0  0  0  0  0  0
   -4.1140    0.2256    0.4308 C   0  0  0  0  0  0  0  0  0  0  0  0
   -2.8763    1.0688    0.0509 C   0  0  0  0  0  0  0  0  0  0  0  0
   -3.8594   -1.2537    0.2312 C   0  0  0  0  0  0  0  0  0  0  0  0
   -3.0319   -1.9358    0.8929 O   0  0  0  0  0  0  0  0  0  0  0  0
   -4.6870   -1.8106   -0.7862 N   0  0  0  0  0  0  0  0  0  0  0  0
   -5.1204   -3.1991   -0.8608 C   0  0  0  0  0  0  0  0  0  0  0  0
   -6.6199   -3.2467   -0.5612 C   0  0  0  0  0  0  0  0  0  0  0  0
   -7.4498   -2.3417   -1.5059 C   0  0  0  0  0  0  0  0  0  0  0  0
   -6.7113   -1.0929   -2.0516 C   0  0  0  0  0  0  0  0  0  0  0  0
   -5.5077   -0.8000   -1.2769 N   0  0  0  0  0  0  0  0  0  0  0  0
   -5.2101    0.4091   -0.5907 C   0  0  0  0  0  0  0  0  0  0  0  0
   -5.7935    1.5016   -0.8293 O   0  0  0  0  0  0  0  0  0  0  0  0
   -0.3170    2.2438   -0.6455 C   0  0  0  0  0  0  0  0  0  0  0  0
    0.4839    1.1141   -1.3013 C   0  0  0  0  0  0  0  0  0  0  0  0
    1.0374   -3.5919    1.9921 H   0  0  0  0  0  0  0  0  0  0  0  0
    1.7785   -5.2104    2.2795 H   0  0  0  0  0  0  0  0  0  0  0  0
    0.7932   -4.9171    0.7946 H   0  0  0  0  0  0  0  0  0  0  0  0
    3.2460   -4.8278    0.2647 H   0  0  0  0  0  0  0  0  0  0  0  0
    5.0398   -3.2370   -0.2723 H   0  0  0  0  0  0  0  0  0  0  0  0
    9.6394    2.9715   -1.6942 H   0  0  0  0  0  0  0  0  0  0  0  0
   10.5176    2.1745   -0.3357 H   0  0  0  0  0  0  0  0  0  0  0  0
    9.3706    3.5231    0.0198 H   0  0  0  0  0  0  0  0  0  0  0  0
    7.3988    4.0325   -1.3945 H   0  0  0  0  0  0  0  0  0  0  0  0
    5.0218    4.3712   -1.9296 H   0  0  0  0  0  0  0  0  0  0  0  0
    3.3914    2.5355   -1.6675 H   0  0  0  0  0  0  0  0  0  0  0  0
    2.7271    0.9769    1.3415 H   0  0  0  0  0  0  0  0  0  0  0  0
    2.2265    2.5333    0.5994 H   0  0  0  0  0  0  0  0  0  0  0  0
    0.5022    0.3873    1.9434 H   0  0  0  0  0  0  0  0  0  0  0  0
    0.7737    2.0624    2.5079 H   0  0  0  0  0  0  0  0  0  0  0  0
   -1.0020    2.8659    1.2948 H   0  0  0  0  0  0  0  0  0  0  0  0
   -1.4918    1.3065    3.1227 H   0  0  0  0  0  0  0  0  0  0  0  0
   -2.1318   -0.2952    2.7225 H   0  0  0  0  0  0  0  0  0  0  0  0
   -3.6268    2.3868    2.4364 H   0  0  0  0  0  0  0  0  0  0  0  0
   -3.8314    1.2017    3.7712 H   0  0  0  0  0  0  0  0  0  0  0  0
   -4.8956   -0.4001    2.3972 H   0  0  0  0  0  0  0  0  0  0  0  0
   -5.5505    1.1569    1.8293 H   0  0  0  0  0  0  0  0  0  0  0  0
   -2.5577    0.7540   -0.9668 H   0  0  0  0  0  0  0  0  0  0  0  0
   -3.1732    2.1421    0.0088 H   0  0  0  0  0  0  0  0  0  0  0  0
   -4.5644   -3.8274   -0.1322 H   0  0  0  0  0  0  0  0  0  0  0  0
   -4.9309   -3.5882   -1.8844 H   0  0  0  0  0  0  0  0  0  0  0  0
   -6.9799   -4.2951   -0.6385 H   0  0  0  0  0  0  0  0  0  0  0  0
   -6.7774   -2.9140    0.4892 H   0  0  0  0  0  0  0  0  0  0  0  0
   -8.3597   -2.0107   -0.9579 H   0  0  0  0  0  0  0  0  0  0  0  0
   -7.8002   -2.9487   -2.3704 H   0  0  0  0  0  0  0  0  0  0  0  0
   -7.3965   -0.2166   -2.0566 H   0  0  0  0  0  0  0  0  0  0  0  0
   -6.4059   -1.2855   -3.1032 H   0  0  0  0  0  0  0  0  0  0  0  0
   -1.2053    2.4986   -1.2565 H   0  0  0  0  0  0  0  0  0  0  0  0
    0.3017    3.1686   -0.6668 H   0  0  0  0  0  0  0  0  0  0  0  0
    0.7677    1.4273   -2.3289 H   0  0  0  0  0  0  0  0  0  0  0  0
   -0.1445    0.2005   -1.3720 H   0  0  0  0  0  0  0  0  0  0  0  0
  1  2  1  0
  2  3  1  0
  3  4  2  0
  3  5  1  0
  5  6  1  0
  6  7  1  0
  7  8  1  0
  8  9  2  0
  9 10  1  0
 10 11  1  0
  9 12  1  0
 12 13  2  0
 13 14  1  0
 14 15  2  0
 15 16  1  0
 16 17  1  0
 17 18  2  0
 17 19  1  0
 19 20  1  0
 20 21  1  0
 21 22  1  0
 22 23  1  0
 23 24  1  0
 24 25  1  0
 25 26  1  0
 26 27  1  0
 27 28  1  0
 27 29  1  0
 29 30  2  0
 29 31  1  0
 31 32  1  0
 32 33  1  0
 33 34  1  0
 34 35  1  0
 35 36  1  0
 36 37  1  0
 37 38  2  0
 22 39  1  0
 39 40  1  0
 16  6  2  0
 40 19  1  0
 15  8  1  0
 28 23  1  0
 36 31  1  0
 37 27  1  0
  1 41  1  0
  1 42  1  0
  1 43  1  0
  2 44  1  0
  5 45  1  0
 11 46  1  0
 11 47  1  0
 11 48  1  0
 12 49  1  0
 13 50  1  0
 14 51  1  0
 20 52  1  0
 20 53  1  0
 21 54  1  0
 21 55  1  0
 22 56  1  0
 24 57  1  0
 24 58  1  0
 25 59  1  0
 25 60  1  0
 26 61  1  0
 26 62  1  0
 28 63  1  0
 28 64  1  0
 32 65  1  0
 32 66  1  0
 33 67  1  0
 33 68  1  0
 34 69  1  0
 34 70  1  0
 35 71  1  0
 35 72  1  0
 39 73  1  0
 39 74  1  0
 40 75  1  0
 40 76  1  0
M  END
$$$$

     RDKit          3D

 73 78  0  0  0  0  0  0  0  0999 V2000
    7.3888   -2.9375    2.3890 C   0  0  0  0  0  0  0  0  0  0  0  0
    6.0720   -3.4181    2.1607 O   0  0  0  0  0  0  0  0  0  0  0  0
    5.1197   -2.8635    1.2824 C   0  0  0  0  0  0  0  0  0  0  0  0
    3.9457   -3.5981    1.0471 C   0  0  0  0  0  0  0  0  0  0  0  0
    2.9776   -3.1405    0.1418 C   0  0  0  0  0  0  0  0  0  0  0  0
    3.1482   -1.9220   -0.5299 C   0  0  0  0  0  0  0  0  0  0  0  0
    4.2968   -1.1613   -0.2873 C   0  0  0  0  0  0  0  0  0  0  0  0
    4.5993    0.0900   -0.8663 C   0  0  0  0  0  0  0  0  0  0  0  0
    3.7189    0.8080   -1.8121 C   0  0  0  0  0  0  0  0  0  0  0  0
    4.1850    1.1602   -2.9296 O   0  0  0  0  0  0  0  0  0  0  0  0
    2.3373    1.0737   -1.4889 N   0  0  0  0  0  0  0  0  0  0  0  0
    1.3303    1.0644   -2.5624 C   0  0  0  0  0  0  0  0  0  0  0  0
    0.0328    1.7913   -2.1492 C   0  0  0  0  0  0  0  0  0  0  0  0
   -0.5181    1.3782   -0.7567 C   0  0  0  0  0  0  0  0  0  0  0  0
   -1.7497    0.5456   -0.8709 N   0  0  0  0  0  0  0  0  0  0  0  0
   -1.5606   -0.7700   -1.5274 C   0  0  0  0  0  0  0  0  0  0  0  0
   -2.9172   -1.4054   -1.8365 C   0  0  0  0  0  0  0  0  0  0  0  0
   -3.7384   -1.5684   -0.5541 C   0  0  0  0  0  0  0  0  0  0  0  0
   -3.8236   -0.2481    0.2439 C   0  0  0  0  0  0  0  0  0  0  0  0
   -2.4332    0.3888    0.4313 C   0  0  0  0  0  0  0  0  0  0  0  0
   -4.5075   -0.4859    1.5654 C   0  0  0  0  0  0  0  0  0  0  0  0
   -4.0750   -1.2528    2.4673 O   0  0  0  0  0  0  0  0  0  0  0  0
   -5.7502    0.2037    1.6590 N   0  0  0  0  0  0  0  0  0  0  0  0
   -6.8305   -0.0967    2.5876 C   0  0  0  0  0  0  0  0  0  0  0  0
   -8.1435   -0.1729    1.8120 C   0  0  0  0  0  0  0  0  0  0  0  0
   -8.3866    1.1209    1.0233 C   0  0  0  0  0  0  0  0  0  0  0  0
   -7.2380    1.4533    0.0399 C   0  0  0  0  0  0  0  0  0  0  0  0
   -5.9415    0.9394    0.4889 N   0  0  0  0  0  0  0  0  0  0  0  0
   -4.8178    0.7191   -0.3624 C   0  0  0  0  0  0  0  0  0  0  0  0
   -4.6907    1.2668   -1.4894 O   0  0  0  0  0  0  0  0  0  0  0  0
    0.5646    0.7672    0.1730 C   0  0  0  0  0  0  0  0  0  0  0  0
    1.9346    1.3795   -0.1096 C   0  0  0  0  0  0  0  0  0  0  0  0
    5.8269    0.5868   -0.4349 C   0  0  0  0  0  0  0  0  0  0  0  0
    6.3343    1.8971   -0.7283 N   0  0  0  0  0  0  0  0  0  0  0  0
    7.7312    2.2426   -0.6571 C   0  0  0  0  0  0  0  0  0  0  0  0
    8.1404    3.5947   -0.8770 N   0  0  0  0  0  0  0  0  0  0  0  0
    8.6059    1.3638   -0.4215 O   0  0  0  0  0  0  0  0  0  0  0  0
    6.5000   -0.4939    0.6725 S   0  0  0  0  0  0  0  0  0  0  0  0
    5.2668   -1.6325    0.5982 C   0  0  0  0  0  0  0  0  0  0  0  0
    7.9755   -2.9240    1.4476 H   0  0  0  0  0  0  0  0  0  0  0  0
    7.8982   -3.6208    3.0945 H   0  0  0  0  0  0  0  0  0  0  0  0
    7.3599   -1.9319    2.8590 H   0  0  0  0  0  0  0  0  0  0  0  0
    3.8019   -4.5506    1.5473 H   0  0  0  0  0  0  0  0  0  0  0  0
    2.0904   -3.7336   -0.0496 H   0  0  0  0  0  0  0  0  0  0  0  0
    2.3993   -1.5979   -1.2384 H   0  0  0  0  0  0  0  0  0  0  0  0
    1.7292    1.5639   -3.4707 H   0  0  0  0  0  0  0  0  0  0  0  0
    1.1134    0.0110   -2.8287 H   0  0  0  0  0  0  0  0  0  0  0  0
   -0.7387    1.6506   -2.9378 H   0  0  0  0  0  0  0  0  0  0  0  0
    0.2619    2.8817   -2.1376 H   0  0  0  0  0  0  0  0  0  0  0  0
   -0.8170    2.3426   -0.2800 H   0  0  0  0  0  0  0  0  0  0  0  0
   -1.0372   -0.6642   -2.4974 H   0  0  0  0  0  0  0  0  0  0  0  0
   -0.9784   -1.4594   -0.8812 H   0  0  0  0  0  0  0  0  0  0  0  0
   -3.4653   -0.7680   -2.5639 H   0  0  0  0  0  0  0  0  0  0  0  0
   -2.7623   -2.4046   -2.3033 H   0  0  0  0  0  0  0  0  0  0  0  0
   -4.7542   -1.9353   -0.8088 H   0  0  0  0  0  0  0  0  0  0  0  0
   -3.2512   -2.3498    0.0720 H   0  0  0  0  0  0  0  0  0  0  0  0
   -1.8258   -0.2497    1.1167 H   0  0  0  0  0  0  0  0  0  0  0  0
   -2.5551    1.3823    0.9199 H   0  0  0  0  0  0  0  0  0  0  0  0
   -6.8831    0.7071    3.3539 H   0  0  0  0  0  0  0  0  0  0  0  0
   -6.6447   -1.0667    3.0969 H   0  0  0  0  0  0  0  0  0  0  0  0
   -8.9878   -0.3311    2.5164 H   0  0  0  0  0  0  0  0  0  0  0  0
   -8.1057   -1.0408    1.1169 H   0  0  0  0  0  0  0  0  0  0  0  0
   -8.5527    1.9707    1.7362 H   0  0  0  0  0  0  0  0  0  0  0  0
   -9.3320    0.9998    0.4395 H   0  0  0  0  0  0  0  0  0  0  0  0
   -7.1695    2.5611   -0.0612 H   0  0  0  0  0  0  0  0  0  0  0  0
   -7.4716    1.0269   -0.9636 H   0  0  0  0  0  0  0  0  0  0  0  0
    0.6514   -0.3286    0.0345 H   0  0  0  0  0  0  0  0  0  0  0  0
    0.2997    0.9525    1.2394 H   0  0  0  0  0  0  0  0  0  0  0  0
    2.6592    0.9741    0.6256 H   0  0  0  0  0  0  0  0  0  0  0  0
    1.8977    2.4811    0.0282 H   0  0  0  0  0  0  0  0  0  0  0  0
    5.6688    2.6143   -1.0935 H   0  0  0  0  0  0  0  0  0  0  0  0
    7.4482    4.3054   -1.1947 H   0  0  0  0  0  0  0  0  0  0  0  0
    9.1419    3.8646   -0.8051 H   0  0  0  0  0  0  0  0  0  0  0  0
  1  2  1  0
  2  3  1  0
  3  4  2  0
  4  5  1  0
  5  6  2  0
  6  7  1  0
  7  8  1  0
  8  9  1  0
  9 10  2  0
  9 11  1  0
 11 12  1  0
 12 13  1  0
 13 14  1  0
 14 15  1  0
 15 16  1  0
 16 17  1  0
 17 18  1  0
 18 19  1  0
 19 20  1  0
 19 21  1  0
 21 22  2  0
 21 23  1  0
 23 24  1  0
 24 25  1  0
 25 26  1  0
 26 27  1  0
 27 28  1  0
 28 29  1  0
 29 30  2  0
 14 31  1  0
 31 32  1  0
  8 33  2  0
 33 34  1  0
 34 35  1  0
 35 36  1  0
 35 37  2  0
 33 38  1  0
 38 39  1  0
 39  3  1  0
 39  7  2  0
 32 11  1  0
 20 15  1  0
 28 23  1  0
 29 19  1  0
  1 40  1  0
  1 41  1  0
  1 42  1  0
  4 43  1  0
  5 44  1  0
  6 45  1  0
 12 46  1  0
 12 47  1  0
 13 48  1  0
 13 49  1  0
 14 50  1  0
 16 51  1  0
 16 52  1  0
 17 53  1  0
 17 54  1  0
 18 55  1  0
 18 56  1  0
 20 57  1  0
 20 58  1  0
 24 59  1  0
 24 60  1  0
 25 61  1  0
 25 62  1  0
 26 63  1  0
 26 64  1  0
 27 65  1  0
 27 66  1  0
 31 67  1  0
 31 68  1  0
 32 69  1  0
 32 70  1  0
 34 71  1  0
 36 72  1  0
 36 73  1  0
M  END
$$$$

     RDKit          3D

 75 80  0  0  0  0  0  0  0  0999 V2000
    8.1186   -5.1598    0.9543 C   0  0  0  0  0  0  0  0  0  0  0  0
    7.7785   -4.2293   -0.2046 C   0  0  0  0  0  0  0  0  0  0  0  0
    6.9420   -3.1148    0.2494 N   0  0  0  0  0  0  0  0  0  0  0  0
    6.5434   -2.0626   -0.6371 C   0  0  0  0  0  0  0  0  0  0  0  0
    7.0108   -2.0060   -1.8053 O   0  0  0  0  0  0  0  0  0  0  0  0
    5.5366   -1.1368   -0.2299 N   0  0  0  0  0  0  0  0  0  0  0  0
    5.5735    0.2428   -0.5941 C   0  0  0  0  0  0  0  0  0  0  0  0
    6.9480    1.2155   -0.4398 S   0  0  0  0  0  0  0  0  0  0  0  0
    6.1288    2.6525   -0.7208 C   0  0  0  0  0  0  0  0  0  0  0  0
    6.6645    3.9390   -0.7587 C   0  0  0  0  0  0  0  0  0  0  0  0
    5.8016    5.0100   -1.0276 C   0  0  0  0  0  0  0  0  0  0  0  0
    4.4350    4.7753   -1.2717 C   0  0  0  0  0  0  0  0  0  0  0  0
    3.9212    3.4703   -1.2450 C   0  0  0  0  0  0  0  0  0  0  0  0
    4.7781    2.4024   -0.9415 C   0  0  0  0  0  0  0  0  0  0  0  0
    4.4492    1.0328   -0.8557 C   0  0  0  0  0  0  0  0  0  0  0  0
    3.1217    0.4526   -1.1540 C   0  0  0  0  0  0  0  0  0  0  0  0
    3.0549   -0.5924   -1.8568 O   0  0  0  0  0  0  0  0  0  0  0  0
    1.9092    1.0637   -0.6833 N   0  0  0  0  0  0  0  0  0  0  0  0
    1.7595    1.4860    0.7061 C   0  0  0  0  0  0  0  0  0  0  0  0
    0.5277    0.8111    1.3202 C   0  0  0  0  0  0  0  0  0  0  0  0
   -0.7557    1.0422    0.4693 C   0  0  0  0  0  0  0  0  0  0  0  0
   -1.9192    0.3349    1.0959 N   0  0  0  0  0  0  0  0  0  0  0  0
   -2.4173    1.0649    2.2863 C   0  0  0  0  0  0  0  0  0  0  0  0
   -3.3506    0.1707    3.1261 C   0  0  0  0  0  0  0  0  0  0  0  0
   -4.0207   -0.9360    2.2981 C   0  0  0  0  0  0  0  0  0  0  0  0
   -4.3263   -0.4675    0.8643 C   0  0  0  0  0  0  0  0  0  0  0  0
   -3.0594    0.1192    0.1598 C   0  0  0  0  0  0  0  0  0  0  0  0
   -4.9388   -1.5953    0.0626 C   0  0  0  0  0  0  0  0  0  0  0  0
   -4.3596   -2.6853   -0.2065 O   0  0  0  0  0  0  0  0  0  0  0  0
   -6.2596   -1.2967   -0.3665 N   0  0  0  0  0  0  0  0  0  0  0  0
   -7.2346   -2.2446   -0.8954 C   0  0  0  0  0  0  0  0  0  0  0  0
   -8.4434   -1.4873   -1.4560 C   0  0  0  0  0  0  0  0  0  0  0  0
   -8.9644   -0.4554   -0.4462 C   0  0  0  0  0  0  0  0  0  0  0  0
   -7.8950    0.5942   -0.1146 C   0  0  0  0  0  0  0  0  0  0  0  0
   -6.6152   -0.0552    0.1501 N   0  0  0  0  0  0  0  0  0  0  0  0
   -5.4958    0.4937    0.8334 C   0  0  0  0  0  0  0  0  0  0  0  0
   -5.5022    1.6414    1.3518 O   0  0  0  0  0  0  0  0  0  0  0  0
   -0.4680    0.5539   -0.9805 C   0  0  0  0  0  0  0  0  0  0  0  0
    0.7652    1.2268   -1.5802 C   0  0  0  0  0  0  0  0  0  0  0  0
    8.7652   -4.6325    1.6856 H   0  0  0  0  0  0  0  0  0  0  0  0
    7.1898   -5.4928    1.4658 H   0  0  0  0  0  0  0  0  0  0  0  0
    8.6583   -6.0562    0.5806 H   0  0  0  0  0  0  0  0  0  0  0  0
    8.7252   -3.8344   -0.6370 H   0  0  0  0  0  0  0  0  0  0  0  0
    7.2387   -4.8001   -0.9904 H   0  0  0  0  0  0  0  0  0  0  0  0
    6.6125   -3.0770    1.2428 H   0  0  0  0  0  0  0  0  0  0  0  0
    4.7495   -1.4783    0.3662 H   0  0  0  0  0  0  0  0  0  0  0  0
    7.7195    4.1074   -0.5869 H   0  0  0  0  0  0  0  0  0  0  0  0
    6.1927    6.0174   -1.0595 H   0  0  0  0  0  0  0  0  0  0  0  0
    3.7801    5.6092   -1.4901 H   0  0  0  0  0  0  0  0  0  0  0  0
    2.8721    3.3118   -1.4536 H   0  0  0  0  0  0  0  0  0  0  0  0
    2.6561    1.2056    1.2993 H   0  0  0  0  0  0  0  0  0  0  0  0
    1.6485    2.5915    0.7516 H   0  0  0  0  0  0  0  0  0  0  0  0
    0.4300    1.2113    2.3501 H   0  0  0  0  0  0  0  0  0  0  0  0
    0.7214   -0.2817    1.4032 H   0  0  0  0  0  0  0  0  0  0  0  0
   -0.9633    2.1362    0.4212 H   0  0  0  0  0  0  0  0  0  0  0  0
   -2.9546    1.9918    1.9748 H   0  0  0  0  0  0  0  0  0  0  0  0
   -1.5990    1.3928    2.9569 H   0  0  0  0  0  0  0  0  0  0  0  0
   -2.7687   -0.3076    3.9442 H   0  0  0  0  0  0  0  0  0  0  0  0
   -4.1299    0.8040    3.6015 H   0  0  0  0  0  0  0  0  0  0  0  0
   -3.3282   -1.8056    2.2492 H   0  0  0  0  0  0  0  0  0  0  0  0
   -4.9464   -1.2780    2.8093 H   0  0  0  0  0  0  0  0  0  0  0  0
   -3.3129    1.0710   -0.3606 H   0  0  0  0  0  0  0  0  0  0  0  0
   -2.7448   -0.6091   -0.6150 H   0  0  0  0  0  0  0  0  0  0  0  0
   -6.7672   -2.8508   -1.6999 H   0  0  0  0  0  0  0  0  0  0  0  0
   -7.5604   -2.9280   -0.0804 H   0  0  0  0  0  0  0  0  0  0  0  0
   -8.1559   -0.9723   -2.3990 H   0  0  0  0  0  0  0  0  0  0  0  0
   -9.2525   -2.2109   -1.6962 H   0  0  0  0  0  0  0  0  0  0  0  0
   -9.8553    0.0538   -0.8699 H   0  0  0  0  0  0  0  0  0  0  0  0
   -9.2748   -0.9757    0.4878 H   0  0  0  0  0  0  0  0  0  0  0  0
   -8.2140    1.1696    0.7806 H   0  0  0  0  0  0  0  0  0  0  0  0
   -7.7781    1.2961   -0.9696 H   0  0  0  0  0  0  0  0  0  0  0  0
   -0.3201   -0.5493   -0.9848 H   0  0  0  0  0  0  0  0  0  0  0  0
   -1.3134    0.8026   -1.6574 H   0  0  0  0  0  0  0  0  0  0  0  0
    0.5673    2.3121   -1.7238 H   0  0  0  0  0  0  0  0  0  0  0  0
    0.9707    0.7851   -2.5828 H   0  0  0  0  0  0  0  0  0  0  0  0
  1  2  1  0
  2  3  1  0
  3  4  1  0
  4  5  2  0
  4  6  1  0
  6  7  1  0
  7  8  1  0
  8  9  1  0
  9 10  2  0
 10 11  1  0
 11 12  2  0
 12 13  1  0
 13 14  2  0
 14 15  1  0
 15 16  1  0
 16 17  2  0
 16 18  1  0
 18 19  1  0
 19 20  1  0
 20 21  1  0
 21 22  1  0
 22 23  1  0
 23 24  1  0
 24 25  1  0
 25 26  1  0
 26 27  1  0
 26 28  1  0
 28 29  2  0
 28 30  1  0
 30 31  1  0
 31 32  1  0
 32 33  1  0
 33 34  1  0
 34 35  1  0
 35 36  1  0
 36 37  2  0
 21 38  1  0
 38 39  1  0
 15  7  2  0
 39 18  1  0
 14  9  1  0
 27 22  1  0
 35 30  1  0
 36 26  1  0
  1 40  1  0
  1 41  1  0
  1 42  1  0
  2 43  1  0
  2 44  1  0
  3 45  1  0
  6 46  1  0
 10 47  1  0
 11 48  1  0
 12 49  1  0
 13 50  1  0
 19 51  1  0
 19 52  1  0
 20 53  1  0
 20 54  1  0
 21 55  1  0
 23 56  1  0
 23 57  1  0
 24 58  1  0
 24 59  1  0
 25 60  1  0
 25 61  1  0
 27 62  1  0
 27 63  1  0
 31 64  1  0
 31 65  1  0
 32 66  1  0
 32 67  1  0
 33 68  1  0
 33 69  1  0
 34 70  1  0
 34 71  1  0
 38 72  1  0
 38 73  1  0
 39 74  1  0
 39 75  1  0
M  END
$$$$

     RDKit          3D

 47 51  0  0  0  0  0  0  0  0999 V2000
    7.0131    1.8197   -1.6509 C   0  0  0  0  0  0  0  0  0  0  0  0
    6.0619    1.3978   -0.5713 C   0  0  0  0  0  0  0  0  0  0  0  0
    6.3491    1.6669    0.7920 C   0  0  0  0  0  0  0  0  0  0  0  0
    5.4577    1.2669    1.8040 C   0  0  0  0  0  0  0  0  0  0  0  0
    4.2940    0.6060    1.4217 C   0  0  0  0  0  0  0  0  0  0  0  0
    3.2653    0.0924    2.1797 C   0  0  0  0  0  0  0  0  0  0  0  0
    2.3780   -0.4569    1.2571 C   0  0  0  0  0  0  0  0  0  0  0  0
    1.1352   -1.1605    1.6170 C   0  0  0  0  0  0  0  0  0  0  0  0
    0.9526   -1.7854    2.8060 N   0  0  0  0  0  0  0  0  0  0  0  0
   -0.2626   -2.3201    2.8153 N   0  0  0  0  0  0  0  0  0  0  0  0
   -0.8620   -2.0348    1.6492 C   0  0  0  0  0  0  0  0  0  0  0  0
   -2.1508   -2.3648    1.2453 C   0  0  0  0  0  0  0  0  0  0  0  0
   -2.5810   -1.9050   -0.0118 C   0  0  0  0  0  0  0  0  0  0  0  0
   -1.7277   -1.1097   -0.8274 C   0  0  0  0  0  0  0  0  0  0  0  0
   -2.1599   -0.6014   -2.1018 N   0  0  0  0  0  0  0  0  0  0  0  0
   -3.8153   -0.5825   -2.6227 S   0  0  0  0  0  6  0  0  0  0  0  0
   -3.9297    0.2244   -3.8849 O   0  0  0  0  0  0  0  0  0  0  0  0
   -4.2595   -1.9912   -2.9021 O   0  0  0  0  0  0  0  0  0  0  0  0
   -4.8239    0.1592   -1.3843 C   0  0  0  0  0  0  0  0  0  0  0  0
   -6.0624   -0.4028   -1.0413 C   0  0  0  0  0  0  0  0  0  0  0  0
   -6.8464    0.1840   -0.0431 C   0  0  0  0  0  0  0  0  0  0  0  0
   -6.3984    1.3327    0.6149 C   0  0  0  0  0  0  0  0  0  0  0  0
   -5.1658    1.8985    0.2740 C   0  0  0  0  0  0  0  0  0  0  0  0
   -4.7301    3.0108    0.9140 F   0  0  0  0  0  0  0  0  0  0  0  0
   -4.3803    1.3139   -0.7248 C   0  0  0  0  0  0  0  0  0  0  0  0
   -0.4235   -0.8034   -0.3765 C   0  0  0  0  0  0  0  0  0  0  0  0
   -0.0200   -1.3003    0.8634 C   0  0  0  0  0  0  0  0  0  0  0  0
    2.8408   -0.3086   -0.0081 N   0  0  0  0  0  0  0  0  0  0  0  0
    4.0080    0.3455    0.1083 C   0  0  0  0  0  0  0  0  0  0  0  0
    4.8717    0.7226   -0.9186 C   0  0  0  0  0  0  0  0  0  0  0  0
    6.5015    2.5168   -2.3474 H   0  0  0  0  0  0  0  0  0  0  0  0
    7.3547    0.9274   -2.2160 H   0  0  0  0  0  0  0  0  0  0  0  0
    7.9045    2.3319   -1.2308 H   0  0  0  0  0  0  0  0  0  0  0  0
    7.2589    2.1844    1.0684 H   0  0  0  0  0  0  0  0  0  0  0  0
    5.6725    1.4651    2.8461 H   0  0  0  0  0  0  0  0  0  0  0  0
    3.1702    0.1113    3.2576 H   0  0  0  0  0  0  0  0  0  0  0  0
   -0.6679   -2.8569    3.6138 H   0  0  0  0  0  0  0  0  0  0  0  0
   -2.8040   -2.9506    1.8791 H   0  0  0  0  0  0  0  0  0  0  0  0
   -3.5770   -2.1686   -0.3362 H   0  0  0  0  0  0  0  0  0  0  0  0
   -1.4643   -0.1286   -2.7209 H   0  0  0  0  0  0  0  0  0  0  0  0
   -6.4199   -1.2936   -1.5412 H   0  0  0  0  0  0  0  0  0  0  0  0
   -7.8003   -0.2534    0.2220 H   0  0  0  0  0  0  0  0  0  0  0  0
   -7.0063    1.7837    1.3887 H   0  0  0  0  0  0  0  0  0  0  0  0
   -3.4255    1.7558   -0.9808 H   0  0  0  0  0  0  0  0  0  0  0  0
    0.2241   -0.1699   -0.9650 H   0  0  0  0  0  0  0  0  0  0  0  0
    2.4196   -0.6710   -0.8911 H   0  0  0  0  0  0  0  0  0  0  0  0
    4.6309    0.5027   -1.9515 H   0  0  0  0  0  0  0  0  0  0  0  0
  1  2  1  0
  2  3  2  0
  3  4  1  0
  4  5  2  0
  5  6  1  0
  6  7  2  0
  7  8  1  0
  8  9  2  0
  9 10  1  0
 10 11  1  0
 11 12  2  0
 12 13  1  0
 13 14  2  0
 14 15  1  0
 15 16  1  0
 16 17  2  0
 16 18  2  0
 16 19  1  0
 19 20  2  0
 20 21  1  0
 21 22  2  0
 22 23  1  0
 23 24  1  0
 23 25  2  0
 14 26  1  0
 26 27  2  0
  7 28  1  0
 28 29  1  0
 29 30  2  0
 30  2  1  0
 29  5  1  0
 27  8  1  0
 27 11  1  0
 25 19  1  0
  1 31  1  0
  1 32  1  0
  1 33  1  0
  3 34  1  0
  4 35  1  0
  6 36  1  0
 10 37  1  0
 12 38  1  0
 13 39  1  0
 15 40  1  0
 20 41  1  0
 21 42  1  0
 22 43  1  0
 25 44  1  0
 26 45  1  0
 28 46  1  0
 30 47  1  0
M  END
$$$$

     RDKit          3D

 64 68  0  0  0  0  0  0  0  0999 V2000
    6.2482    3.9093   -1.3053 C   0  0  0  0  0  0  0  0  0  0  0  0
    6.6459    2.4471   -1.4752 C   0  0  0  0  0  0  0  0  0  0  0  0
    5.7468    1.5848   -0.7072 N   0  0  0  0  0  0  0  0  0  0  0  0
    5.7308    1.3863    0.6953 C   0  0  0  0  0  0  0  0  0  0  0  0
    6.4025    2.0718    1.5070 O   0  0  0  0  0  0  0  0  0  0  0  0
    4.8798    0.3606    1.0817 O   0  0  0  0  0  0  0  0  0  0  0  0
    4.2389   -0.2014   -0.0702 C   0  0  0  0  0  0  0  0  0  0  0  0
    4.5681   -1.7086   -0.1886 C   0  0  0  0  0  0  0  0  0  0  0  0
    3.4809   -2.5995    0.4432 C   0  0  0  0  0  0  0  0  0  0  0  0
    2.7924   -1.8962    1.6208 C   0  0  0  0  0  0  0  0  0  0  0  0
    2.1545   -0.6108    1.2298 N   0  0  0  0  0  0  0  0  0  0  0  0
    0.6696   -0.6244    1.3204 C   0  0  0  0  0  0  0  0  0  0  0  0
   -0.0004   -1.5812    0.2909 C   0  0  0  0  0  0  0  0  0  0  0  0
   -1.5011   -1.2891    0.1586 C   0  0  0  0  0  0  0  0  0  0  0  0
   -1.7343    0.1211   -0.1985 N   0  0  0  0  0  0  0  0  0  0  0  0
   -2.9986    0.5274   -0.7444 C   0  0  0  0  0  0  0  0  0  0  0  0
   -3.0504    1.4507   -1.6012 O   0  0  0  0  0  0  0  0  0  0  0  0
   -4.2533   -0.0338   -0.2268 C   0  0  0  0  0  0  0  0  0  0  0  0
   -4.9049    0.4832    0.8940 C   0  0  0  0  0  0  0  0  0  0  0  0
   -4.3735    1.5238    1.7274 N   0  0  0  0  0  0  0  0  0  0  0  0
   -5.1434    2.5585    2.3635 C   0  0  0  0  0  0  0  0  0  0  0  0
   -6.5192    2.7766    2.0510 N   0  0  0  0  0  0  0  0  0  0  0  0
   -4.5766    3.3223    3.1895 O   0  0  0  0  0  0  0  0  0  0  0  0
   -6.3191   -0.3975    1.1928 S   0  0  0  0  0  0  0  0  0  0  0  0
   -6.1295   -1.4148   -0.1350 C   0  0  0  0  0  0  0  0  0  0  0  0
   -6.9734   -2.4364   -0.5597 C   0  0  0  0  0  0  0  0  0  0  0  0
   -6.6033   -3.1814   -1.6915 C   0  0  0  0  0  0  0  0  0  0  0  0
   -5.4159   -2.8783   -2.3833 C   0  0  0  0  0  0  0  0  0  0  0  0
   -4.5893   -1.8284   -1.9512 C   0  0  0  0  0  0  0  0  0  0  0  0
   -4.9569   -1.1017   -0.8112 C   0  0  0  0  0  0  0  0  0  0  0  0
   -0.6702    1.1182   -0.0054 C   0  0  0  0  0  0  0  0  0  0  0  0
    0.0782    0.8164    1.2997 C   0  0  0  0  0  0  0  0  0  0  0  0
    2.7228    0.0348    0.0181 C   0  0  0  0  0  0  0  0  0  0  0  0
    4.8533    0.5955   -1.1934 C   0  0  0  0  0  0  0  0  0  0  0  0
    4.6065    0.4252   -2.4170 O   0  0  0  0  0  0  0  0  0  0  0  0
    5.2027    4.0462   -1.6504 H   0  0  0  0  0  0  0  0  0  0  0  0
    6.3289    4.2117   -0.2396 H   0  0  0  0  0  0  0  0  0  0  0  0
    6.9142    4.5541   -1.9158 H   0  0  0  0  0  0  0  0  0  0  0  0
    7.6947    2.2902   -1.1339 H   0  0  0  0  0  0  0  0  0  0  0  0
    6.5884    2.1846   -2.5539 H   0  0  0  0  0  0  0  0  0  0  0  0
    5.5457   -1.9120    0.3042 H   0  0  0  0  0  0  0  0  0  0  0  0
    4.6706   -2.0011   -1.2589 H   0  0  0  0  0  0  0  0  0  0  0  0
    3.9360   -3.5531    0.7921 H   0  0  0  0  0  0  0  0  0  0  0  0
    2.7139   -2.8556   -0.3219 H   0  0  0  0  0  0  0  0  0  0  0  0
    3.5517   -1.6843    2.4020 H   0  0  0  0  0  0  0  0  0  0  0  0
    2.0648   -2.5990    2.0820 H   0  0  0  0  0  0  0  0  0  0  0  0
    0.4045   -1.0249    2.3299 H   0  0  0  0  0  0  0  0  0  0  0  0
    0.4424   -1.4715   -0.7195 H   0  0  0  0  0  0  0  0  0  0  0  0
    0.1455   -2.6398    0.5996 H   0  0  0  0  0  0  0  0  0  0  0  0
   -2.0144   -1.5199    1.1176 H   0  0  0  0  0  0  0  0  0  0  0  0
   -1.9161   -1.9502   -0.6311 H   0  0  0  0  0  0  0  0  0  0  0  0
   -3.3328    1.5874    1.8089 H   0  0  0  0  0  0  0  0  0  0  0  0
   -7.0033    2.2358    1.2938 H   0  0  0  0  0  0  0  0  0  0  0  0
   -7.0361    3.5759    2.4878 H   0  0  0  0  0  0  0  0  0  0  0  0
   -7.8874   -2.6609   -0.0273 H   0  0  0  0  0  0  0  0  0  0  0  0
   -7.2351   -3.9865   -2.0370 H   0  0  0  0  0  0  0  0  0  0  0  0
   -5.1360   -3.4602   -3.2522 H   0  0  0  0  0  0  0  0  0  0  0  0
   -3.6783   -1.6018   -2.4876 H   0  0  0  0  0  0  0  0  0  0  0  0
    0.0283    1.0839   -0.8677 H   0  0  0  0  0  0  0  0  0  0  0  0
   -1.0954    2.1429    0.0561 H   0  0  0  0  0  0  0  0  0  0  0  0
   -0.6523    0.9143    2.1358 H   0  0  0  0  0  0  0  0  0  0  0  0
    0.8568    1.5851    1.4903 H   0  0  0  0  0  0  0  0  0  0  0  0
    2.2552   -0.3485   -0.9097 H   0  0  0  0  0  0  0  0  0  0  0  0
    2.5371    1.1270    0.0546 H   0  0  0  0  0  0  0  0  0  0  0  0
  1  2  1  0
  2  3  1  0
  3  4  1  0
  4  5  2  0
  4  6  1  0
  6  7  1  0
  7  8  1  0
  8  9  1  0
  9 10  1  0
 10 11  1  0
 11 12  1  0
 12 13  1  0
 13 14  1  0
 14 15  1  0
 15 16  1  0
 16 17  2  0
 16 18  1  0
 18 19  2  0
 19 20  1  0
 20 21  1  0
 21 22  1  0
 21 23  2  0
 19 24  1  0
 24 25  1  0
 25 26  2  0
 26 27  1  0
 27 28  2  0
 28 29  1  0
 29 30  2  0
 15 31  1  0
 31 32  1  0
 11 33  1  0
  7 34  1  0
 34 35  2  0
 34  3  1  0
 33  7  1  0
 32 12  1  0
 30 18  1  0
 30 25  1  0
  1 36  1  0
  1 37  1  0
  1 38  1  0
  2 39  1  0
  2 40  1  0
  8 41  1  0
  8 42  1  0
  9 43  1  0
  9 44  1  0
 10 45  1  0
 10 46  1  0
 12 47  1  0
 13 48  1  0
 13 49  1  0
 14 50  1  0
 14 51  1  0
 20 52  1  0
 22 53  1  0
 22 54  1  0
 26 55  1  0
 27 56  1  0
 28 57  1  0
 29 58  1  0
 31 59  1  0
 31 60  1  0
 32 61  1  0
 32 62  1  0
 33 63  1  0
 33 64  1  0
M  END
$$$$

     RDKit          3D

 51 55  0  0  0  0  0  0  0  0999 V2000
    7.9353   -0.3137    1.5482 C   0  0  0  0  0  0  0  0  0  0  0  0
    7.2958   -1.3574    0.8203 O   0  0  0  0  0  0  0  0  0  0  0  0
    6.1833   -1.1755   -0.0155 C   0  0  0  0  0  0  0  0  0  0  0  0
    5.6487   -2.2955   -0.6649 C   0  0  0  0  0  0  0  0  0  0  0  0
    4.5393   -2.1668   -1.5047 C   0  0  0  0  0  0  0  0  0  0  0  0
    3.9534   -0.9145   -1.7019 C   0  0  0  0  0  0  0  0  0  0  0  0
    4.4738    0.2159   -1.0589 C   0  0  0  0  0  0  0  0  0  0  0  0
    3.7083    1.7835   -1.3041 S   0  0  0  0  0  6  0  0  0  0  0  0
    4.0171    2.2596   -2.6953 O   0  0  0  0  0  0  0  0  0  0  0  0
    4.2214    2.7976   -0.3201 O   0  0  0  0  0  0  0  0  0  0  0  0
    1.9901    1.6273   -1.1183 N   0  0  0  0  0  0  0  0  0  0  0  0
    1.3536    1.0965    0.0579 C   0  0  0  0  0  0  0  0  0  0  0  0
    2.0828    0.8370    1.2522 C   0  0  0  0  0  0  0  0  0  0  0  0
    1.4437    0.3002    2.3835 C   0  0  0  0  0  0  0  0  0  0  0  0
    0.0784    0.0534    2.3003 C   0  0  0  0  0  0  0  0  0  0  0  0
   -0.7230   -0.4781    3.2357 N   0  0  0  0  0  0  0  0  0  0  0  0
   -1.9516   -0.5603    2.7401 N   0  0  0  0  0  0  0  0  0  0  0  0
   -1.9380   -0.0686    1.4770 C   0  0  0  0  0  0  0  0  0  0  0  0
   -3.1474    0.0183    0.6388 C   0  0  0  0  0  0  0  0  0  0  0  0
   -3.3679    0.9208   -0.4028 C   0  0  0  0  0  0  0  0  0  0  0  0
   -4.6511    0.6617   -0.8327 C   0  0  0  0  0  0  0  0  0  0  0  0
   -5.4105    1.2668   -1.8307 C   0  0  0  0  0  0  0  0  0  0  0  0
   -6.7219    0.8005   -2.0324 C   0  0  0  0  0  0  0  0  0  0  0  0
   -7.2422   -0.2565   -1.2429 C   0  0  0  0  0  0  0  0  0  0  0  0
   -8.6582   -0.7087   -1.4379 C   0  0  0  0  0  0  0  0  0  0  0  0
   -6.4476   -0.8323   -0.2269 C   0  0  0  0  0  0  0  0  0  0  0  0
   -5.1512   -0.3485   -0.0564 C   0  0  0  0  0  0  0  0  0  0  0  0
   -4.2454   -0.7468    0.8513 N   0  0  0  0  0  0  0  0  0  0  0  0
   -0.6416    0.3227    1.1711 C   0  0  0  0  0  0  0  0  0  0  0  0
   -0.0333    0.8272    0.0201 C   0  0  0  0  0  0  0  0  0  0  0  0
    5.5899    0.0861   -0.2190 C   0  0  0  0  0  0  0  0  0  0  0  0
    7.2189    0.1499    2.2591 H   0  0  0  0  0  0  0  0  0  0  0  0
    8.7824   -0.7386    2.1247 H   0  0  0  0  0  0  0  0  0  0  0  0
    8.3294    0.4529    0.8489 H   0  0  0  0  0  0  0  0  0  0  0  0
    6.0944   -3.2701   -0.5160 H   0  0  0  0  0  0  0  0  0  0  0  0
    4.1320   -3.0384   -2.0012 H   0  0  0  0  0  0  0  0  0  0  0  0
    3.0919   -0.8252   -2.3522 H   0  0  0  0  0  0  0  0  0  0  0  0
    1.4018    1.8755   -1.9445 H   0  0  0  0  0  0  0  0  0  0  0  0
    3.1403    1.0416    1.3175 H   0  0  0  0  0  0  0  0  0  0  0  0
    1.9973    0.0854    3.2882 H   0  0  0  0  0  0  0  0  0  0  0  0
   -0.4487   -0.7889    4.1939 H   0  0  0  0  0  0  0  0  0  0  0  0
   -2.7157    1.7029   -0.7623 H   0  0  0  0  0  0  0  0  0  0  0  0
   -5.0068    2.0733   -2.4307 H   0  0  0  0  0  0  0  0  0  0  0  0
   -7.3337    1.2618   -2.7979 H   0  0  0  0  0  0  0  0  0  0  0  0
   -9.3382   -0.0499   -0.8584 H   0  0  0  0  0  0  0  0  0  0  0  0
   -8.9357   -0.6614   -2.5123 H   0  0  0  0  0  0  0  0  0  0  0  0
   -8.7907   -1.7567   -1.0931 H   0  0  0  0  0  0  0  0  0  0  0  0
   -6.8282   -1.6229    0.4083 H   0  0  0  0  0  0  0  0  0  0  0  0
   -4.3675   -1.4887    1.5760 H   0  0  0  0  0  0  0  0  0  0  0  0
   -0.5936    0.9818   -0.8896 H   0  0  0  0  0  0  0  0  0  0  0  0
    5.9864    0.9637    0.2728 H   0  0  0  0  0  0  0  0  0  0  0  0
  1  2  1  0
  2  3  1  0
  3  4  2  0
  4  5  1  0
  5  6  2  0
  6  7  1  0
  7  8  1  0
  8  9  2  0
  8 10  2  0
  8 11  1  0
 11 12  1  0
 12 13  2  0
 13 14  1  0
 14 15  2  0
 15 16  1  0
 16 17  1  0
 17 18  2  0
 18 19  1  0
 19 20  2  0
 20 21  1  0
 21 22  2  0
 22 23  1  0
 23 24  2  0
 24 25  1  0
 24 26  1  0
 26 27  2  0
 27 28  1  0
 18 29  1  0
 29 30  2  0
  7 31  2  0
 31  3  1  0
 30 12  1  0
 29 15  1  0
 28 19  1  0
 27 21  1  0
  1 32  1  0
  1 33  1  0
  1 34  1  0
  4 35  1  0
  5 36  1  0
  6 37  1  0
 11 38  1  0
 13 39  1  0
 14 40  1  0
 16 41  1  0
 20 42  1  0
 22 43  1  0
 23 44  1  0
 25 45  1  0
 25 46  1  0
 25 47  1  0
 26 48  1  0
 28 49  1  0
 30 50  1  0
 31 51  1  0
M  END
$$$$

     RDKit          3D

 66 71  0  0  0  0  0  0  0  0999 V2000
    8.5566    3.7352   -0.8026 C   0  0  0  0  0  0  0  0  0  0  0  0
    7.3357    4.0963   -0.0217 C   0  0  0  0  0  0  0  0  0  0  0  0
    7.3084    5.1729    0.6339 O   0  0  0  0  0  0  0  0  0  0  0  0
    6.2056    3.2190   -0.0195 N   0  0  0  0  0  0  0  0  0  0  0  0
    4.7659    3.5887    0.8689 S   0  0  0  0  0  6  0  0  0  0  0  0
    4.1730    4.8733    0.3609 O   0  0  0  0  0  0  0  0  0  0  0  0
    5.0925    3.7399    2.3283 O   0  0  0  0  0  0  0  0  0  0  0  0
    3.6078    2.2790    0.6629 C   0  0  0  0  0  0  0  0  0  0  0  0
    2.6206    2.3552   -0.3283 C   0  0  0  0  0  0  0  0  0  0  0  0
    1.7105    1.3077   -0.4967 C   0  0  0  0  0  0  0  0  0  0  0  0
    1.7768    0.1712    0.3253 C   0  0  0  0  0  0  0  0  0  0  0  0
    0.8202   -0.9421    0.1479 C   0  0  0  0  0  0  0  0  0  0  0  0
   -0.5630   -0.8770   -0.0191 C   0  0  0  0  0  0  0  0  0  0  0  0
   -1.3932    0.3410    0.0436 C   0  0  0  0  0  0  0  0  0  0  0  0
   -2.7072    0.3133   -0.2093 C   0  0  0  0  0  0  0  0  0  0  0  0
   -3.5518    1.5237   -0.1418 C   0  0  0  0  0  0  0  0  0  0  0  0
   -4.9255    1.4324   -0.4112 C   0  0  0  0  0  0  0  0  0  0  0  0
   -5.7215    2.5781   -0.3479 C   0  0  0  0  0  0  0  0  0  0  0  0
   -5.1450    3.8098   -0.0159 C   0  0  0  0  0  0  0  0  0  0  0  0
   -5.9150    4.9804    0.0568 C   0  0  0  0  0  0  0  0  0  0  0  0
   -5.3076    6.1958    0.3905 C   0  0  0  0  0  0  0  0  0  0  0  0
   -3.9343    6.2481    0.6523 C   0  0  0  0  0  0  0  0  0  0  0  0
   -3.1600    5.0855    0.5825 C   0  0  0  0  0  0  0  0  0  0  0  0
   -3.7588    3.8652    0.2493 C   0  0  0  0  0  0  0  0  0  0  0  0
   -3.0094    2.7327    0.1796 N   0  0  0  0  0  0  0  0  0  0  0  0
   -1.0707   -2.1273   -0.1792 N   0  0  0  0  0  0  0  0  0  0  0  0
    0.0139   -2.9255   -0.1012 C   0  0  0  0  0  0  0  0  0  0  0  0
    0.0433   -4.3165   -0.2345 C   0  0  0  0  0  0  0  0  0  0  0  0
   -1.1536   -5.0933   -0.4239 N   0  0  0  0  0  0  0  0  0  0  0  0
   -2.2817   -4.9390    0.5026 C   0  0  0  0  0  0  0  0  0  0  0  0
   -3.2667   -6.0971    0.3417 C   0  0  0  0  0  0  0  0  0  0  0  0
   -2.5521   -7.2910    0.1061 O   0  0  0  0  0  0  0  0  0  0  0  0
   -2.0321   -7.2903   -1.2125 C   0  0  0  0  0  0  0  0  0  0  0  0
   -1.2719   -5.9934   -1.5789 C   0  0  0  0  0  0  0  0  0  0  0  0
    1.3062   -4.9354   -0.1614 C   0  0  0  0  0  0  0  0  0  0  0  0
    2.4618   -4.1562    0.0322 C   0  0  0  0  0  0  0  0  0  0  0  0
    2.3542   -2.8036    0.1521 N   0  0  0  0  0  0  0  0  0  0  0  0
    1.1489   -2.2409    0.0935 N   0  0  0  0  0  0  0  0  0  0  0  0
    2.7798    0.0898    1.3037 C   0  0  0  0  0  0  0  0  0  0  0  0
    3.6889    1.1382    1.4716 C   0  0  0  0  0  0  0  0  0  0  0  0
    8.9631    2.7712   -0.4308 H   0  0  0  0  0  0  0  0  0  0  0  0
    8.2937    3.6309   -1.8758 H   0  0  0  0  0  0  0  0  0  0  0  0
    9.3359    4.5200   -0.6962 H   0  0  0  0  0  0  0  0  0  0  0  0
    6.2394    2.3317   -0.5700 H   0  0  0  0  0  0  0  0  0  0  0  0
    2.5583    3.2203   -0.9758 H   0  0  0  0  0  0  0  0  0  0  0  0
    0.9669    1.3766   -1.2808 H   0  0  0  0  0  0  0  0  0  0  0  0
   -0.9182    1.2737    0.3172 H   0  0  0  0  0  0  0  0  0  0  0  0
   -3.1795   -0.6250   -0.4773 H   0  0  0  0  0  0  0  0  0  0  0  0
   -5.3779    0.4824   -0.6685 H   0  0  0  0  0  0  0  0  0  0  0  0
   -6.7818    2.5013   -0.5577 H   0  0  0  0  0  0  0  0  0  0  0  0
   -6.9795    4.9550   -0.1432 H   0  0  0  0  0  0  0  0  0  0  0  0
   -5.9017    7.0988    0.4466 H   0  0  0  0  0  0  0  0  0  0  0  0
   -3.4698    7.1911    0.9100 H   0  0  0  0  0  0  0  0  0  0  0  0
   -2.0975    5.1350    0.7870 H   0  0  0  0  0  0  0  0  0  0  0  0
   -1.8974   -4.9404    1.5463 H   0  0  0  0  0  0  0  0  0  0  0  0
   -2.8081   -3.9801    0.3159 H   0  0  0  0  0  0  0  0  0  0  0  0
   -3.9933   -5.8855   -0.4776 H   0  0  0  0  0  0  0  0  0  0  0  0
   -3.8557   -6.2086    1.2767 H   0  0  0  0  0  0  0  0  0  0  0  0
   -2.8531   -7.4725   -1.9418 H   0  0  0  0  0  0  0  0  0  0  0  0
   -1.3340   -8.1494   -1.3025 H   0  0  0  0  0  0  0  0  0  0  0  0
   -1.8244   -5.4610   -2.3831 H   0  0  0  0  0  0  0  0  0  0  0  0
   -0.2713   -6.2526   -1.9875 H   0  0  0  0  0  0  0  0  0  0  0  0
    1.3955   -6.0112   -0.2409 H   0  0  0  0  0  0  0  0  0  0  0  0
    3.4339   -4.6273    0.0865 H   0  0  0  0  0  0  0  0  0  0  0  0
    2.8510   -0.7778    1.9478 H   0  0  0  0  0  0  0  0  0  0  0  0
    4.4555    1.0595    2.2319 H   0  0  0  0  0  0  0  0  0  0  0  0
  1  2  1  0
  2  3  2  0
  2  4  1  0
  4  5  1  0
  5  6  2  0
  5  7  2  0
  5  8  1  0
  8  9  2  0
  9 10  1  0
 10 11  2  0
 11 12  1  0
 12 13  2  0
 13 14  1  0
 14 15  2  0
 15 16  1  0
 16 17  2  0
 17 18  1  0
 18 19  2  0
 19 20  1  0
 20 21  2  0
 21 22  1  0
 22 23  2  0
 23 24  1  0
 24 25  2  0
 13 26  1  0
 26 27  2  0
 27 28  1  0
 28 29  1  0
 29 30  1  0
 30 31  1  0
 31 32  1  0
 32 33  1  0
 33 34  1  0
 28 35  2  0
 35 36  1  0
 36 37  2  0
 37 38  1  0
 11 39  1  0
 39 40  2  0
 40  8  1  0
 38 12  1  0
 25 16  1  0
 38 27  1  0
 24 19  1  0
 34 29  1  0
  1 41  1  0
  1 42  1  0
  1 43  1  0
  4 44  1  0
  9 45  1  0
 10 46  1  0
 14 47  1  0
 15 48  1  0
 17 49  1  0
 18 50  1  0
 20 51  1  0
 21 52  1  0
 22 53  1  0
 23 54  1  0
 30 55  1  0
 30 56  1  0
 31 57  1  0
 31 58  1  0
 33 59  1  0
 33 60  1  0
 34 61  1  0
 34 62  1  0
 35 63  1  0
 36 64  1  0
 39 65  1  0
 40 66  1  0
M  END
$$$$

     RDKit          3D

 63 68  0  0  0  0  0  0  0  0999 V2000
   -0.4367    7.5658    0.4821 N   0  0  0  0  0  0  0  0  0  0  0  0
    0.4302    6.4723   -0.5415 S   0  0  0  0  0  6  0  0  0  0  0  0
    1.8988    6.5347   -0.2264 O   0  0  0  0  0  0  0  0  0  0  0  0
    0.2213    6.8756   -1.9748 O   0  0  0  0  0  0  0  0  0  0  0  0
   -0.1553    4.8323   -0.2786 C   0  0  0  0  0  0  0  0  0  0  0  0
   -0.7759    4.1174   -1.3115 C   0  0  0  0  0  0  0  0  0  0  0  0
   -1.2277    2.8130   -1.0917 C   0  0  0  0  0  0  0  0  0  0  0  0
   -1.0562    2.2055    0.1613 C   0  0  0  0  0  0  0  0  0  0  0  0
   -1.5197    0.8210    0.3808 C   0  0  0  0  0  0  0  0  0  0  0  0
   -0.7856   -0.2680    0.8535 C   0  0  0  0  0  0  0  0  0  0  0  0
    0.6844   -0.2936    1.1595 C   0  0  0  0  0  0  0  0  0  0  0  0
    1.4943   -0.3727   -0.1432 C   0  0  0  0  0  0  0  0  0  0  0  0
    2.9963   -0.4174    0.0211 C   0  0  0  0  0  0  0  0  0  0  0  0
    3.6463   -0.3672    1.2715 C   0  0  0  0  0  0  0  0  0  0  0  0
    5.0406   -0.4149    1.3295 C   0  0  0  0  0  0  0  0  0  0  0  0
    5.7869   -0.5102    0.1503 C   0  0  0  0  0  0  0  0  0  0  0  0
    7.1892   -0.5589    0.1752 C   0  0  0  0  0  0  0  0  0  0  0  0
    7.9048   -0.6572   -1.0231 C   0  0  0  0  0  0  0  0  0  0  0  0
    7.2273   -0.7059   -2.2463 C   0  0  0  0  0  0  0  0  0  0  0  0
    5.8297   -0.6565   -2.2786 C   0  0  0  0  0  0  0  0  0  0  0  0
    5.1055   -0.5589   -1.0847 C   0  0  0  0  0  0  0  0  0  0  0  0
    3.7472   -0.5112   -1.1116 N   0  0  0  0  0  0  0  0  0  0  0  0
   -1.5352   -1.3984    0.7816 N   0  0  0  0  0  0  0  0  0  0  0  0
   -2.7153   -0.9681    0.2889 C   0  0  0  0  0  0  0  0  0  0  0  0
   -3.8278   -1.7531   -0.0257 C   0  0  0  0  0  0  0  0  0  0  0  0
   -3.8525   -3.1716    0.2045 N   0  0  0  0  0  0  0  0  0  0  0  0
   -3.4541   -3.7229    1.5014 C   0  0  0  0  0  0  0  0  0  0  0  0
   -4.2081   -5.0334    1.7480 C   0  0  0  0  0  0  0  0  0  0  0  0
   -4.0368   -5.9216    0.6576 O   0  0  0  0  0  0  0  0  0  0  0  0
   -4.6392   -5.3811   -0.5041 C   0  0  0  0  0  0  0  0  0  0  0  0
   -3.9391   -4.0881   -0.9331 C   0  0  0  0  0  0  0  0  0  0  0  0
   -4.9299   -1.0965   -0.6038 C   0  0  0  0  0  0  0  0  0  0  0  0
   -4.8783    0.2911   -0.8354 C   0  0  0  0  0  0  0  0  0  0  0  0
   -3.7543    0.9912   -0.5115 N   0  0  0  0  0  0  0  0  0  0  0  0
   -2.7234    0.3464    0.0319 N   0  0  0  0  0  0  0  0  0  0  0  0
   -0.4424    2.9261    1.1972 C   0  0  0  0  0  0  0  0  0  0  0  0
    0.0075    4.2311    0.9767 C   0  0  0  0  0  0  0  0  0  0  0  0
   -0.0399    8.5176    0.3172 H   0  0  0  0  0  0  0  0  0  0  0  0
   -0.2049    7.3106    1.4682 H   0  0  0  0  0  0  0  0  0  0  0  0
   -0.9071    4.5619   -2.2893 H   0  0  0  0  0  0  0  0  0  0  0  0
   -1.6898    2.2694   -1.9058 H   0  0  0  0  0  0  0  0  0  0  0  0
    0.9006   -1.1839    1.7894 H   0  0  0  0  0  0  0  0  0  0  0  0
    0.9685    0.6126    1.7306 H   0  0  0  0  0  0  0  0  0  0  0  0
    1.2459    0.5083   -0.7760 H   0  0  0  0  0  0  0  0  0  0  0  0
    1.1849   -1.2861   -0.6986 H   0  0  0  0  0  0  0  0  0  0  0  0
    3.0972   -0.2927    2.1991 H   0  0  0  0  0  0  0  0  0  0  0  0
    5.5338   -0.3782    2.2933 H   0  0  0  0  0  0  0  0  0  0  0  0
    7.7280   -0.5218    1.1153 H   0  0  0  0  0  0  0  0  0  0  0  0
    8.9864   -0.6956   -1.0044 H   0  0  0  0  0  0  0  0  0  0  0  0
    7.7864   -0.7837   -3.1699 H   0  0  0  0  0  0  0  0  0  0  0  0
    5.3133   -0.6948   -3.2300 H   0  0  0  0  0  0  0  0  0  0  0  0
   -2.3615   -3.9215    1.4982 H   0  0  0  0  0  0  0  0  0  0  0  0
   -3.6861   -3.0040    2.3182 H   0  0  0  0  0  0  0  0  0  0  0  0
   -5.2887   -4.8326    1.9371 H   0  0  0  0  0  0  0  0  0  0  0  0
   -3.8000   -5.5135    2.6625 H   0  0  0  0  0  0  0  0  0  0  0  0
   -5.7272   -5.2009   -0.3431 H   0  0  0  0  0  0  0  0  0  0  0  0
   -4.5488   -6.1234   -1.3263 H   0  0  0  0  0  0  0  0  0  0  0  0
   -2.9125   -4.3243   -1.2862 H   0  0  0  0  0  0  0  0  0  0  0  0
   -4.5050   -3.6279   -1.7709 H   0  0  0  0  0  0  0  0  0  0  0  0
   -5.8219   -1.6528   -0.8653 H   0  0  0  0  0  0  0  0  0  0  0  0
   -5.7243    0.8014   -1.2758 H   0  0  0  0  0  0  0  0  0  0  0  0
   -0.3310    2.4887    2.1813 H   0  0  0  0  0  0  0  0  0  0  0  0
    0.4871    4.7715    1.7838 H   0  0  0  0  0  0  0  0  0  0  0  0
  1  2  1  0
  2  3  2  0
  2  4  2  0
  2  5  1  0
  5  6  2  0
  6  7  1  0
  7  8  2  0
  8  9  1  0
  9 10  2  0
 10 11  1  0
 11 12  1  0
 12 13  1  0
 13 14  2  0
 14 15  1  0
 15 16  2  0
 16 17  1  0
 17 18  2  0
 18 19  1  0
 19 20  2  0
 20 21  1  0
 21 22  2  0
 10 23  1  0
 23 24  2  0
 24 25  1  0
 25 26  1  0
 26 27  1  0
 27 28  1  0
 28 29  1  0
 29 30  1  0
 30 31  1  0
 25 32  2  0
 32 33  1  0
 33 34  2  0
 34 35  1  0
  8 36  1  0
 36 37  2  0
 37  5  1  0
 35  9  1  0
 22 13  1  0
 35 24  1  0
 21 16  1  0
 31 26  1  0
  1 38  1  0
  1 39  1  0
  6 40  1  0
  7 41  1  0
 11 42  1  0
 11 43  1  0
 12 44  1  0
 12 45  1  0
 14 46  1  0
 15 47  1  0
 17 48  1  0
 18 49  1  0
 19 50  1  0
 20 51  1  0
 27 52  1  0
 27 53  1  0
 28 54  1  0
 28 55  1  0
 30 56  1  0
 30 57  1  0
 31 58  1  0
 31 59  1  0
 32 60  1  0
 33 61  1  0
 36 62  1  0
 37 63  1  0
M  END
$$$$

     RDKit          3D

 47 51  0  0  0  0  0  0  0  0999 V2000
    6.4982    2.5024   -2.1412 C   0  0  0  0  0  0  0  0  0  0  0  0
    5.8493    1.5066   -1.2269 C   0  0  0  0  0  0  0  0  0  0  0  0
    6.6579    0.6266   -0.4644 C   0  0  0  0  0  0  0  0  0  0  0  0
    6.0736   -0.3138    0.4032 C   0  0  0  0  0  0  0  0  0  0  0  0
    4.6842   -0.3510    0.4807 C   0  0  0  0  0  0  0  0  0  0  0  0
    3.8504   -1.1380    1.2437 C   0  0  0  0  0  0  0  0  0  0  0  0
    2.5618   -0.7262    0.9103 C   0  0  0  0  0  0  0  0  0  0  0  0
    1.3340   -1.2630    1.5218 C   0  0  0  0  0  0  0  0  0  0  0  0
    1.3013   -1.8181    2.7581 N   0  0  0  0  0  0  0  0  0  0  0  0
    0.0532   -2.1888    3.0176 N   0  0  0  0  0  0  0  0  0  0  0  0
   -0.7102   -1.8845    1.9569 C   0  0  0  0  0  0  0  0  0  0  0  0
   -2.0678   -2.1273    1.7811 C   0  0  0  0  0  0  0  0  0  0  0  0
   -2.6451   -1.7609    0.5525 C   0  0  0  0  0  0  0  0  0  0  0  0
   -1.8564   -1.1730   -0.4764 C   0  0  0  0  0  0  0  0  0  0  0  0
   -2.4226   -0.8053   -1.7469 N   0  0  0  0  0  0  0  0  0  0  0  0
   -4.1275   -0.7423   -2.0655 S   0  0  0  0  0  6  0  0  0  0  0  0
   -4.6821   -2.1395   -2.0502 O   0  0  0  0  0  0  0  0  0  0  0  0
   -4.3557   -0.1406   -3.4232 O   0  0  0  0  0  0  0  0  0  0  0  0
   -4.9296    0.2605   -0.8607 C   0  0  0  0  0  0  0  0  0  0  0  0
   -6.1982   -0.0889   -0.3756 C   0  0  0  0  0  0  0  0  0  0  0  0
   -6.8240    0.7065    0.5897 C   0  0  0  0  0  0  0  0  0  0  0  0
   -6.1874    1.8543    1.0719 C   0  0  0  0  0  0  0  0  0  0  0  0
   -6.7946    2.6238    2.0085 F   0  0  0  0  0  0  0  0  0  0  0  0
   -4.9247    2.2087    0.5870 C   0  0  0  0  0  0  0  0  0  0  0  0
   -4.2974    1.4155   -0.3787 C   0  0  0  0  0  0  0  0  0  0  0  0
   -0.4771   -0.9569   -0.2558 C   0  0  0  0  0  0  0  0  0  0  0  0
    0.0560   -1.3049    0.9860 C   0  0  0  0  0  0  0  0  0  0  0  0
    2.5944    0.2784    0.0009 N   0  0  0  0  0  0  0  0  0  0  0  0
    3.8955    0.4927   -0.2549 C   0  0  0  0  0  0  0  0  0  0  0  0
    4.4421    1.4408   -1.1183 C   0  0  0  0  0  0  0  0  0  0  0  0
    7.1100    1.9691   -2.8988 H   0  0  0  0  0  0  0  0  0  0  0  0
    7.1557    3.1759   -1.5523 H   0  0  0  0  0  0  0  0  0  0  0  0
    5.7429    3.1215   -2.6705 H   0  0  0  0  0  0  0  0  0  0  0  0
    7.7370    0.6747   -0.5426 H   0  0  0  0  0  0  0  0  0  0  0  0
    6.6858   -0.9841    0.9927 H   0  0  0  0  0  0  0  0  0  0  0  0
    4.1366   -1.9052    1.9515 H   0  0  0  0  0  0  0  0  0  0  0  0
   -0.2566   -2.6500    3.9016 H   0  0  0  0  0  0  0  0  0  0  0  0
   -2.6593   -2.5919    2.5594 H   0  0  0  0  0  0  0  0  0  0  0  0
   -3.6973   -1.9561    0.4076 H   0  0  0  0  0  0  0  0  0  0  0  0
   -1.7878   -0.4741   -2.5075 H   0  0  0  0  0  0  0  0  0  0  0  0
   -6.7015   -0.9747   -0.7410 H   0  0  0  0  0  0  0  0  0  0  0  0
   -7.8020    0.4320    0.9636 H   0  0  0  0  0  0  0  0  0  0  0  0
   -4.4312    3.0972    0.9589 H   0  0  0  0  0  0  0  0  0  0  0  0
   -3.3198    1.6990   -0.7474 H   0  0  0  0  0  0  0  0  0  0  0  0
    0.1456   -0.5536   -1.0407 H   0  0  0  0  0  0  0  0  0  0  0  0
    1.7912    0.8239   -0.3807 H   0  0  0  0  0  0  0  0  0  0  0  0
    3.7989    2.1024   -1.6852 H   0  0  0  0  0  0  0  0  0  0  0  0
  1  2  1  0
  2  3  2  0
  3  4  1  0
  4  5  2  0
  5  6  1  0
  6  7  2  0
  7  8  1  0
  8  9  2  0
  9 10  1  0
 10 11  1  0
 11 12  2  0
 12 13  1  0
 13 14  2  0
 14 15  1  0
 15 16  1  0
 16 17  2  0
 16 18  2  0
 16 19  1  0
 19 20  2  0
 20 21  1  0
 21 22  2  0
 22 23  1  0
 22 24  1  0
 24 25  2  0
 14 26  1  0
 26 27  2  0
  7 28  1  0
 28 29  1  0
 29 30  2  0
 30  2  1  0
 29  5  1  0
 27  8  1  0
 27 11  1  0
 25 19  1  0
  1 31  1  0
  1 32  1  0
  1 33  1  0
  3 34  1  0
  4 35  1  0
  6 36  1  0
 10 37  1  0
 12 38  1  0
 13 39  1  0
 15 40  1  0
 20 41  1  0
 21 42  1  0
 24 43  1  0
 25 44  1  0
 26 45  1  0
 28 46  1  0
 30 47  1  0
M  END
$$$$

     RDKit          3D

 79 84  0  0  0  0  0  0  0  0999 V2000
    0.6870   -0.5263   -3.6670 C   0  0  0  0  0  0  0  0  0  0  0  0
    0.7405   -0.1768   -2.2453 N   0  0  0  0  0  0  0  0  0  0  0  0
    1.9740    0.2324   -1.6415 C   0  0  0  0  0  0  0  0  0  0  0  0
    3.1283   -0.5537   -1.7982 C   0  0  0  0  0  0  0  0  0  0  0  0
    4.3408   -0.1496   -1.2418 C   0  0  0  0  0  0  0  0  0  0  0  0
    4.4211    1.0541   -0.5334 C   0  0  0  0  0  0  0  0  0  0  0  0
    5.9579    1.5877    0.1432 S   0  0  0  0  0  6  0  0  0  0  0  0
    7.0937    1.0203   -0.6631 O   0  0  0  0  0  0  0  0  0  0  0  0
    6.0347    3.0891    0.0877 O   0  0  0  0  0  0  0  0  0  0  0  0
    6.0924    1.0498    1.8407 C   0  0  0  0  0  0  0  0  0  0  0  0
    5.9913   -0.4482    1.9236 C   0  0  0  0  0  0  0  0  0  0  0  0
    4.7522   -1.0646    2.1689 C   0  0  0  0  0  0  0  0  0  0  0  0
    4.6548   -2.4589    2.2110 C   0  0  0  0  0  0  0  0  0  0  0  0
    5.7930   -3.2477    2.0123 C   0  0  0  0  0  0  0  0  0  0  0  0
    5.6719   -4.9959    2.0663 Cl  0  0  0  0  0  0  0  0  0  0  0  0
    7.0296   -2.6407    1.7680 C   0  0  0  0  0  0  0  0  0  0  0  0
    7.1291   -1.2463    1.7227 C   0  0  0  0  0  0  0  0  0  0  0  0
    3.2704    1.8303   -0.3569 C   0  0  0  0  0  0  0  0  0  0  0  0
    2.0399    1.4179   -0.8847 C   0  0  0  0  0  0  0  0  0  0  0  0
    0.9264    2.3142   -0.7661 N   0  0  0  0  0  0  0  0  0  0  0  0
   -0.3457    2.0441   -0.6950 C   0  0  0  0  0  0  0  0  0  0  0  0
   -1.2729    3.1833   -0.6328 C   0  0  0  0  0  0  0  0  0  0  0  0
   -1.9739    3.5777   -1.7803 C   0  0  0  0  0  0  0  0  0  0  0  0
   -2.8406    4.6739   -1.7329 C   0  0  0  0  0  0  0  0  0  0  0  0
   -3.0361    5.3744   -0.5271 C   0  0  0  0  0  0  0  0  0  0  0  0
   -3.9409    6.5441   -0.4719 C   0  0  0  0  0  0  0  0  0  0  0  0
   -4.4529    7.0083   -1.5280 O   0  0  0  0  0  0  0  0  0  0  0  0
   -4.2220    7.1576    0.7459 O   0  0  0  0  0  0  0  0  0  0  0  0
   -2.3361    4.9652    0.6220 C   0  0  0  0  0  0  0  0  0  0  0  0
   -1.4536    3.8837    0.5670 C   0  0  0  0  0  0  0  0  0  0  0  0
   -0.8940    0.6616   -0.6082 C   0  0  0  0  0  0  0  0  0  0  0  0
   -1.9971    0.4129    0.2223 C   0  0  0  0  0  0  0  0  0  0  0  0
   -2.6442   -0.8409    0.2553 C   0  0  0  0  0  0  0  0  0  0  0  0
   -2.0988   -1.9103   -0.5124 C   0  0  0  0  0  0  0  0  0  0  0  0
   -1.0034   -1.6390   -1.3595 C   0  0  0  0  0  0  0  0  0  0  0  0
   -0.4003   -0.3778   -1.4046 C   0  0  0  0  0  0  0  0  0  0  0  0
   -2.7159   -3.3190   -0.5248 C   0  0  0  0  0  0  0  0  0  0  0  0
   -1.6168   -4.4026   -0.3777 C   0  0  0  0  0  0  0  0  0  0  0  0
   -3.4442   -3.5342   -1.8715 C   0  0  0  0  0  0  0  0  0  0  0  0
   -3.7083   -3.5227    0.6491 C   0  0  0  0  0  0  0  0  0  0  0  0
   -4.6276   -2.3237    0.8484 C   0  0  0  0  0  0  0  0  0  0  0  0
   -3.8424   -1.0354    1.1963 C   0  0  0  0  0  0  0  0  0  0  0  0
   -3.3262   -1.1002    2.6506 C   0  0  0  0  0  0  0  0  0  0  0  0
   -4.8461    0.1398    1.0798 C   0  0  0  0  0  0  0  0  0  0  0  0
    1.0807    0.3180   -4.2725 H   0  0  0  0  0  0  0  0  0  0  0  0
   -0.3607   -0.7199   -3.9853 H   0  0  0  0  0  0  0  0  0  0  0  0
    1.2888   -1.4370   -3.8648 H   0  0  0  0  0  0  0  0  0  0  0  0
    3.0892   -1.4868   -2.3478 H   0  0  0  0  0  0  0  0  0  0  0  0
    5.2174   -0.7724   -1.3689 H   0  0  0  0  0  0  0  0  0  0  0  0
    5.2821    1.5274    2.4299 H   0  0  0  0  0  0  0  0  0  0  0  0
    7.0625    1.3963    2.2584 H   0  0  0  0  0  0  0  0  0  0  0  0
    3.8624   -0.4653    2.3139 H   0  0  0  0  0  0  0  0  0  0  0  0
    3.6944   -2.9245    2.3943 H   0  0  0  0  0  0  0  0  0  0  0  0
    7.9127   -3.2476    1.6099 H   0  0  0  0  0  0  0  0  0  0  0  0
    8.0925   -0.7888    1.5280 H   0  0  0  0  0  0  0  0  0  0  0  0
    3.3294    2.7638    0.1871 H   0  0  0  0  0  0  0  0  0  0  0  0
   -1.8373    3.0465   -2.7158 H   0  0  0  0  0  0  0  0  0  0  0  0
   -3.3548    4.9747   -2.6386 H   0  0  0  0  0  0  0  0  0  0  0  0
   -4.8347    7.9634    0.7922 H   0  0  0  0  0  0  0  0  0  0  0  0
   -2.4646    5.4862    1.5621 H   0  0  0  0  0  0  0  0  0  0  0  0
   -0.9169    3.5864    1.4622 H   0  0  0  0  0  0  0  0  0  0  0  0
   -2.3460    1.2100    0.8597 H   0  0  0  0  0  0  0  0  0  0  0  0
   -0.5992   -2.4132   -1.9971 H   0  0  0  0  0  0  0  0  0  0  0  0
   -0.9756   -4.1887    0.5055 H   0  0  0  0  0  0  0  0  0  0  0  0
   -0.9670   -4.4695   -1.2748 H   0  0  0  0  0  0  0  0  0  0  0  0
   -2.0749   -5.4060   -0.2376 H   0  0  0  0  0  0  0  0  0  0  0  0
   -2.7269   -3.4904   -2.7192 H   0  0  0  0  0  0  0  0  0  0  0  0
   -4.2088   -2.7500   -2.0449 H   0  0  0  0  0  0  0  0  0  0  0  0
   -3.9424   -4.5275   -1.8998 H   0  0  0  0  0  0  0  0  0  0  0  0
   -4.3356   -4.4246    0.4683 H   0  0  0  0  0  0  0  0  0  0  0  0
   -3.1581   -3.7199    1.5956 H   0  0  0  0  0  0  0  0  0  0  0  0
   -5.2278   -2.1728   -0.0747 H   0  0  0  0  0  0  0  0  0  0  0  0
   -5.3552   -2.5595    1.6572 H   0  0  0  0  0  0  0  0  0  0  0  0
   -4.1553   -1.3308    3.3527 H   0  0  0  0  0  0  0  0  0  0  0  0
   -2.8808   -0.1278    2.9503 H   0  0  0  0  0  0  0  0  0  0  0  0
   -2.5373   -1.8707    2.7661 H   0  0  0  0  0  0  0  0  0  0  0  0
   -5.1143    0.3213    0.0163 H   0  0  0  0  0  0  0  0  0  0  0  0
   -5.7816   -0.0905    1.6358 H   0  0  0  0  0  0  0  0  0  0  0  0
   -4.4453    1.0821    1.5091 H   0  0  0  0  0  0  0  0  0  0  0  0
  1  2  1  0
  2  3  1  0
  3  4  2  0
  4  5  1  0
  5  6  2  0
  6  7  1  0
  7  8  2  0
  7  9  2  0
  7 10  1  0
 10 11  1  0
 11 12  2  0
 12 13  1  0
 13 14  2  0
 14 15  1  0
 14 16  1  0
 16 17  2  0
  6 18  1  0
 18 19  2  0
 19 20  1  0
 20 21  2  0
 21 22  1  0
 22 23  2  0
 23 24  1  0
 24 25  2  0
 25 26  1  0
 26 27  2  0
 26 28  1  0
 25 29  1  0
 29 30  2  0
 21 31  1  0
 31 32  2  0
 32 33  1  0
 33 34  2  0
 34 35  1  0
 35 36  2  0
 34 37  1  0
 37 38  1  0
 37 39  1  0
 37 40  1  0
 40 41  1  0
 41 42  1  0
 42 43  1  0
 42 44  1  0
 36  2  1  0
 19  3  1  0
 30 22  1  0
 36 31  1  0
 17 11  1  0
 42 33  1  0
  1 45  1  0
  1 46  1  0
  1 47  1  0
  4 48  1  0
  5 49  1  0
 10 50  1  0
 10 51  1  0
 12 52  1  0
 13 53  1  0
 16 54  1  0
 17 55  1  0
 18 56  1  0
 23 57  1  0
 24 58  1  0
 28 59  1  0
 29 60  1  0
 30 61  1  0
 32 62  1  0
 35 63  1  0
 38 64  1  0
 38 65  1  0
 38 66  1  0
 39 67  1  0
 39 68  1  0
 39 69  1  0
 40 70  1  0
 40 71  1  0
 41 72  1  0
 41 73  1  0
 43 74  1  0
 43 75  1  0
 43 76  1  0
 44 77  1  0
 44 78  1  0
 44 79  1  0
M  END
$$$$

     RDKit          3D

 71 75  0  0  0  0  0  0  0  0999 V2000
   -6.8607   -5.3155   -0.8144 C   0  0  0  0  0  0  0  0  0  0  0  0
   -5.8973   -4.3028   -0.3972 N   0  0  0  0  0  0  0  0  0  0  0  0
   -5.8808   -2.9899   -0.9729 C   0  0  0  0  0  0  0  0  0  0  0  0
   -6.6969   -2.6964   -1.8876 O   0  0  0  0  0  0  0  0  0  0  0  0
   -4.9508   -2.0134   -0.4747 N   0  0  0  0  0  0  0  0  0  0  0  0
   -4.8581   -0.6519   -0.9319 C   0  0  0  0  0  0  0  0  0  0  0  0
   -5.6478    0.0054   -2.2858 S   0  0  0  0  0  0  0  0  0  0  0  0
   -5.0146    1.5442   -2.0704 C   0  0  0  0  0  0  0  0  0  0  0  0
   -5.2566    2.6376   -2.8345 N   0  0  0  0  0  0  0  0  0  0  0  0
   -4.6721    3.8298   -2.5146 C   0  0  0  0  0  0  0  0  0  0  0  0
   -4.9302    5.0337   -3.3635 C   0  0  0  0  0  0  0  0  0  0  0  0
   -3.8074    3.9175   -1.4000 C   0  0  0  0  0  0  0  0  0  0  0  0
   -3.5651    2.7814   -0.6113 C   0  0  0  0  0  0  0  0  0  0  0  0
   -4.1887    1.5812   -0.9615 C   0  0  0  0  0  0  0  0  0  0  0  0
   -4.0884    0.3416   -0.3109 C   0  0  0  0  0  0  0  0  0  0  0  0
   -3.3021    0.1186    0.9112 C   0  0  0  0  0  0  0  0  0  0  0  0
   -3.8558    0.3378    2.0236 O   0  0  0  0  0  0  0  0  0  0  0  0
   -1.9462   -0.3796    0.8586 N   0  0  0  0  0  0  0  0  0  0  0  0
   -1.1272   -0.2895   -0.3537 C   0  0  0  0  0  0  0  0  0  0  0  0
   -0.0038    0.7357   -0.1452 C   0  0  0  0  0  0  0  0  0  0  0  0
    0.7547    0.5981    1.2113 C   0  0  0  0  0  0  0  0  0  0  0  0
    1.9893   -0.2421    1.1746 N   0  0  0  0  0  0  0  0  0  0  0  0
    1.8696   -1.5203    0.4474 C   0  0  0  0  0  0  0  0  0  0  0  0
    3.0423   -2.4574    0.7863 C   0  0  0  0  0  0  0  0  0  0  0  0
    4.2441   -1.7155    1.3903 C   0  0  0  0  0  0  0  0  0  0  0  0
    4.4859   -0.3309    0.7376 C   0  0  1  0  0  0  0  0  0  0  0  0
    3.1682    0.5201    0.6956 C   0  0  0  0  0  0  0  0  0  0  0  0
    5.6523    0.4103    1.4678 C   0  0  0  0  0  0  0  0  0  0  0  0
    6.7195    0.7595    0.3880 C   0  0  0  0  0  0  0  0  0  0  0  0
    6.7910    2.2730    0.1453 C   0  0  0  0  0  0  0  0  0  0  0  0
    8.1049    0.2126    0.7641 C   0  0  0  0  0  0  0  0  0  0  0  0
    6.2773    0.1249   -0.7980 O   0  0  0  0  0  0  0  0  0  0  0  0
    5.0544   -0.4837   -0.6366 C   0  0  0  0  0  0  0  0  0  0  0  0
    4.4793   -1.0876   -1.5822 O   0  0  0  0  0  0  0  0  0  0  0  0
   -0.1517    0.2203    2.4113 C   0  0  0  0  0  0  0  0  0  0  0  0
   -1.2504   -0.7920    2.0795 C   0  0  0  0  0  0  0  0  0  0  0  0
   -6.7084   -5.5595   -1.8880 H   0  0  0  0  0  0  0  0  0  0  0  0
   -7.8949   -4.9417   -0.6558 H   0  0  0  0  0  0  0  0  0  0  0  0
   -6.7184   -6.2385   -0.2147 H   0  0  0  0  0  0  0  0  0  0  0  0
   -5.2187   -4.5342    0.3625 H   0  0  0  0  0  0  0  0  0  0  0  0
   -4.3257   -2.3068    0.3094 H   0  0  0  0  0  0  0  0  0  0  0  0
   -5.7146    4.8178   -4.1190 H   0  0  0  0  0  0  0  0  0  0  0  0
   -3.9968    5.3269   -3.8882 H   0  0  0  0  0  0  0  0  0  0  0  0
   -5.2732    5.8781   -2.7298 H   0  0  0  0  0  0  0  0  0  0  0  0
   -3.3317    4.8563   -1.1474 H   0  0  0  0  0  0  0  0  0  0  0  0
   -2.9084    2.8435    0.2472 H   0  0  0  0  0  0  0  0  0  0  0  0
   -1.7254    0.0141   -1.2376 H   0  0  0  0  0  0  0  0  0  0  0  0
   -0.7126   -1.2887   -0.5959 H   0  0  0  0  0  0  0  0  0  0  0  0
    0.7000    0.6968   -1.0009 H   0  0  0  0  0  0  0  0  0  0  0  0
   -0.4751    1.7431   -0.1758 H   0  0  0  0  0  0  0  0  0  0  0  0
    1.0693    1.6392    1.4566 H   0  0  0  0  0  0  0  0  0  0  0  0
    0.9430   -2.0486    0.7263 H   0  0  0  0  0  0  0  0  0  0  0  0
    1.8479   -1.3435   -0.6511 H   0  0  0  0  0  0  0  0  0  0  0  0
    3.3569   -2.9975   -0.1323 H   0  0  0  0  0  0  0  0  0  0  0  0
    2.7044   -3.2295    1.5143 H   0  0  0  0  0  0  0  0  0  0  0  0
    4.0478   -1.5691    2.4765 H   0  0  0  0  0  0  0  0  0  0  0  0
    5.1523   -2.3532    1.3034 H   0  0  0  0  0  0  0  0  0  0  0  0
    3.2815    1.4234    1.3312 H   0  0  0  0  0  0  0  0  0  0  0  0
    2.9778    0.9044   -0.3326 H   0  0  0  0  0  0  0  0  0  0  0  0
    5.3186    1.3163    2.0180 H   0  0  0  0  0  0  0  0  0  0  0  0
    6.1043   -0.2407    2.2505 H   0  0  0  0  0  0  0  0  0  0  0  0
    5.7909    2.6607   -0.1472 H   0  0  0  0  0  0  0  0  0  0  0  0
    7.1255    2.8005    1.0639 H   0  0  0  0  0  0  0  0  0  0  0  0
    7.5063    2.4975   -0.6752 H   0  0  0  0  0  0  0  0  0  0  0  0
    8.0563   -0.8885    0.9026 H   0  0  0  0  0  0  0  0  0  0  0  0
    8.8363    0.4297   -0.0436 H   0  0  0  0  0  0  0  0  0  0  0  0
    8.4636    0.6778    1.7079 H   0  0  0  0  0  0  0  0  0  0  0  0
    0.4687   -0.1680    3.2491 H   0  0  0  0  0  0  0  0  0  0  0  0
   -0.6532    1.1423    2.7806 H   0  0  0  0  0  0  0  0  0  0  0  0
   -1.9464   -0.8688    2.9406 H   0  0  0  0  0  0  0  0  0  0  0  0
   -0.8284   -1.8064    1.9462 H   0  0  0  0  0  0  0  0  0  0  0  0
  1  2  1  0
  2  3  1  0
  3  4  2  0
  3  5  1  0
  5  6  1  0
  6  7  1  0
  7  8  1  0
  8  9  2  0
  9 10  1  0
 10 11  1  0
 10 12  2  0
 12 13  1  0
 13 14  2  0
 14 15  1  0
 15 16  1  0
 16 17  2  0
 16 18  1  0
 18 19  1  0
 19 20  1  0
 20 21  1  0
 21 22  1  0
 22 23  1  0
 23 24  1  0
 24 25  1  0
 25 26  1  0
 26 27  1  0
 26 28  1  0
 28 29  1  0
 29 30  1  0
 29 31  1  0
 29 32  1  0
 32 33  1  0
 33 34  2  0
 21 35  1  0
 35 36  1  0
 15  6  2  0
 36 18  1  0
 14  8  1  0
 27 22  1  0
 26 33  1  6
  1 37  1  0
  1 38  1  0
  1 39  1  0
  2 40  1  0
  5 41  1  0
 11 42  1  0
 11 43  1  0
 11 44  1  0
 12 45  1  0
 13 46  1  0
 19 47  1  0
 19 48  1  0
 20 49  1  0
 20 50  1  0
 21 51  1  0
 23 52  1  0
 23 53  1  0
 24 54  1  0
 24 55  1  0
 25 56  1  0
 25 57  1  0
 27 58  1  0
 27 59  1  0
 28 60  1  0
 28 61  1  0
 30 62  1  0
 30 63  1  0
 30 64  1  0
 31 65  1  0
 31 66  1  0
 31 67  1  0
 35 68  1  0
 35 69  1  0
 36 70  1  0
 36 71  1  0
M  END
$$$$

     RDKit          3D

 47 51  0  0  0  0  0  0  0  0999 V2000
   -7.8378    1.5890   -0.5969 C   0  0  0  0  0  0  0  0  0  0  0  0
   -6.4737    1.1334   -0.1722 C   0  0  0  0  0  0  0  0  0  0  0  0
   -6.0104    1.3702    1.1479 C   0  0  0  0  0  0  0  0  0  0  0  0
   -4.7312    0.9405    1.5455 C   0  0  0  0  0  0  0  0  0  0  0  0
   -3.9429    0.2857    0.6033 C   0  0  0  0  0  0  0  0  0  0  0  0
   -2.6781   -0.2498    0.7109 C   0  0  0  0  0  0  0  0  0  0  0  0
   -2.4079   -0.7910   -0.5467 C   0  0  0  0  0  0  0  0  0  0  0  0
   -1.1919   -1.5268   -0.9362 C   0  0  0  0  0  0  0  0  0  0  0  0
   -1.1732   -2.4467   -1.9316 N   0  0  0  0  0  0  0  0  0  0  0  0
    0.0578   -2.9339   -2.0296 N   0  0  0  0  0  0  0  0  0  0  0  0
    0.8289   -2.3287   -1.1136 C   0  0  0  0  0  0  0  0  0  0  0  0
    2.1881   -2.5108   -0.8840 C   0  0  0  0  0  0  0  0  0  0  0  0
    2.7958   -1.7228    0.1090 C   0  0  0  0  0  0  0  0  0  0  0  0
    2.0429   -0.7573    0.8342 C   0  0  0  0  0  0  0  0  0  0  0  0
    2.6515    0.0795    1.8332 N   0  0  0  0  0  0  0  0  0  0  0  0
    4.3656    0.2919    2.0002 S   0  0  0  0  0  6  0  0  0  0  0  0
    4.9678   -0.9737    2.5441 O   0  0  0  0  0  0  0  0  0  0  0  0
    4.6359    1.4113    2.9654 O   0  0  0  0  0  0  0  0  0  0  0  0
    5.0747    0.7082    0.4402 C   0  0  0  0  0  0  0  0  0  0  0  0
    6.2116    0.0294   -0.0247 C   0  0  0  0  0  0  0  0  0  0  0  0
    6.7627    0.3507   -1.2688 C   0  0  0  0  0  0  0  0  0  0  0  0
    6.1842    1.3516   -2.0537 C   0  0  0  0  0  0  0  0  0  0  0  0
    5.0545    2.0342   -1.5946 C   0  0  0  0  0  0  0  0  0  0  0  0
    4.4992    1.7167   -0.3506 C   0  0  0  0  0  0  0  0  0  0  0  0
    3.4034    2.3913    0.0800 F   0  0  0  0  0  0  0  0  0  0  0  0
    0.6625   -0.6104    0.5687 C   0  0  0  0  0  0  0  0  0  0  0  0
    0.0855   -1.4288   -0.4036 C   0  0  0  0  0  0  0  0  0  0  0  0
   -3.4593   -0.6134   -1.3822 N   0  0  0  0  0  0  0  0  0  0  0  0
   -4.3844    0.0506   -0.6707 C   0  0  0  0  0  0  0  0  0  0  0  0
   -5.6466    0.4598   -1.0969 C   0  0  0  0  0  0  0  0  0  0  0  0
   -8.4405    0.7132   -0.9170 H   0  0  0  0  0  0  0  0  0  0  0  0
   -8.3724    2.1008    0.2314 H   0  0  0  0  0  0  0  0  0  0  0  0
   -7.7462    2.2970   -1.4474 H   0  0  0  0  0  0  0  0  0  0  0  0
   -6.6384    1.8835    1.8652 H   0  0  0  0  0  0  0  0  0  0  0  0
   -4.3729    1.1143    2.5521 H   0  0  0  0  0  0  0  0  0  0  0  0
   -2.0671   -0.2849    1.6014 H   0  0  0  0  0  0  0  0  0  0  0  0
    0.3554   -3.6583   -2.7201 H   0  0  0  0  0  0  0  0  0  0  0  0
    2.7608   -3.2321   -1.4525 H   0  0  0  0  0  0  0  0  0  0  0  0
    3.8481   -1.8698    0.3023 H   0  0  0  0  0  0  0  0  0  0  0  0
    2.0406    0.6791    2.4321 H   0  0  0  0  0  0  0  0  0  0  0  0
    6.6703   -0.7492    0.5707 H   0  0  0  0  0  0  0  0  0  0  0  0
    7.6382   -0.1769   -1.6248 H   0  0  0  0  0  0  0  0  0  0  0  0
    6.6116    1.5989   -3.0168 H   0  0  0  0  0  0  0  0  0  0  0  0
    4.6093    2.8101   -2.2041 H   0  0  0  0  0  0  0  0  0  0  0  0
    0.0852    0.1421    1.0845 H   0  0  0  0  0  0  0  0  0  0  0  0
   -3.5385   -0.9295   -2.3749 H   0  0  0  0  0  0  0  0  0  0  0  0
   -5.9789    0.2620   -2.1085 H   0  0  0  0  0  0  0  0  0  0  0  0
  1  2  1  0
  2  3  2  0
  3  4  1  0
  4  5  2  0
  5  6  1  0
  6  7  2  0
  7  8  1  0
  8  9  2  0
  9 10  1  0
 10 11  1  0
 11 12  2  0
 12 13  1  0
 13 14  2  0
 14 15  1  0
 15 16  1  0
 16 17  2  0
 16 18  2  0
 16 19  1  0
 19 20  2  0
 20 21  1  0
 21 22  2  0
 22 23  1  0
 23 24  2  0
 24 25  1  0
 14 26  1  0
 26 27  2  0
  7 28  1  0
 28 29  1  0
 29 30  2  0
 30  2  1  0
 29  5  1  0
 27  8  1  0
 27 11  1  0
 24 19  1  0
  1 31  1  0
  1 32  1  0
  1 33  1  0
  3 34  1  0
  4 35  1  0
  6 36  1  0
 10 37  1  0
 12 38  1  0
 13 39  1  0
 15 40  1  0
 20 41  1  0
 21 42  1  0
 22 43  1  0
 23 44  1  0
 26 45  1  0
 28 46  1  0
 30 47  1  0
M  END
$$$$

     RDKit          3D

 82 87  0  0  0  0  0  0  0  0999 V2000
    1.0554    2.2694   -0.9980 C   0  0  0  0  0  0  0  0  0  0  0  0
    0.5011    1.1805   -0.1905 N   0  0  0  0  0  0  0  0  0  0  0  0
    1.3486    0.3134    0.5648 C   0  0  0  0  0  0  0  0  0  0  0  0
    2.2294    0.8556    1.5115 C   0  0  0  0  0  0  0  0  0  0  0  0
    3.0410    0.0202    2.2746 C   0  0  0  0  0  0  0  0  0  0  0  0
    3.0132   -1.3649    2.0731 C   0  0  0  0  0  0  0  0  0  0  0  0
    4.1275   -2.4108    2.9542 S   0  0  0  0  0  6  0  0  0  0  0  0
    3.4908   -3.7607    3.1375 O   0  0  0  0  0  0  0  0  0  0  0  0
    4.4270   -1.8411    4.3138 O   0  0  0  0  0  0  0  0  0  0  0  0
    5.5966   -2.5957    2.0446 N   0  0  0  0  0  0  0  0  0  0  0  0
    6.3333   -1.4795    1.5218 C   0  0  0  0  0  0  0  0  0  0  0  0
    6.9836   -1.5981    0.2841 C   0  0  0  0  0  0  0  0  0  0  0  0
    7.7038   -0.5216   -0.2427 C   0  0  0  0  0  0  0  0  0  0  0  0
    7.7974    0.6918    0.4672 C   0  0  0  0  0  0  0  0  0  0  0  0
    8.5051    1.8065   -0.0160 O   0  0  0  0  0  0  0  0  0  0  0  0
    9.2431    1.8462   -1.2367 C   0  0  0  0  0  0  0  0  0  0  0  0
    8.4016    1.6235   -2.3127 F   0  0  0  0  0  0  0  0  0  0  0  0
   10.2478    0.8936   -1.2144 F   0  0  0  0  0  0  0  0  0  0  0  0
    9.8224    3.0950   -1.3722 F   0  0  0  0  0  0  0  0  0  0  0  0
    7.1604    0.8016    1.7071 C   0  0  0  0  0  0  0  0  0  0  0  0
    6.4399   -0.2737    2.2332 C   0  0  0  0  0  0  0  0  0  0  0  0
    2.1366   -1.9070    1.1216 C   0  0  0  0  0  0  0  0  0  0  0  0
    1.2690   -1.0803    0.3972 C   0  0  0  0  0  0  0  0  0  0  0  0
    0.4275   -1.6800   -0.5999 N   0  0  0  0  0  0  0  0  0  0  0  0
   -0.7588   -1.3127   -1.0014 C   0  0  0  0  0  0  0  0  0  0  0  0
   -1.3708   -2.1095   -2.0752 C   0  0  0  0  0  0  0  0  0  0  0  0
   -1.1165   -1.7838   -3.4151 C   0  0  0  0  0  0  0  0  0  0  0  0
   -1.6484   -2.5689   -4.4460 C   0  0  0  0  0  0  0  0  0  0  0  0
   -2.4488   -3.6862   -4.1451 C   0  0  0  0  0  0  0  0  0  0  0  0
   -3.0104   -4.5181   -5.2288 C   0  0  0  0  0  0  0  0  0  0  0  0
   -3.8560   -5.4168   -4.9687 O   0  0  0  0  0  0  0  0  0  0  0  0
   -2.6088   -4.3176   -6.5477 O   0  0  0  0  0  0  0  0  0  0  0  0
   -2.6948   -4.0093   -2.7986 C   0  0  0  0  0  0  0  0  0  0  0  0
   -2.1441   -3.2381   -1.7717 C   0  0  0  0  0  0  0  0  0  0  0  0
   -1.5283   -0.1926   -0.3823 C   0  0  0  0  0  0  0  0  0  0  0  0
   -2.9033   -0.3382   -0.1490 C   0  0  0  0  0  0  0  0  0  0  0  0
   -3.6712    0.6803    0.4575 C   0  0  0  0  0  0  0  0  0  0  0  0
   -3.0478    1.9288    0.7410 C   0  0  0  0  0  0  0  0  0  0  0  0
   -1.6659    2.0579    0.5073 C   0  0  0  0  0  0  0  0  0  0  0  0
   -0.9141    1.0194   -0.0486 C   0  0  0  0  0  0  0  0  0  0  0  0
   -3.7975    3.0881    1.4123 C   0  0  0  0  0  0  0  0  0  0  0  0
   -3.4286    4.4445    0.7601 C   0  0  0  0  0  0  0  0  0  0  0  0
   -3.4000    3.1392    2.9052 C   0  0  0  0  0  0  0  0  0  0  0  0
   -5.3265    2.9222    1.2655 C   0  0  0  0  0  0  0  0  0  0  0  0
   -5.7888    1.5140    1.6238 C   0  0  0  0  0  0  0  0  0  0  0  0
   -5.1710    0.4320    0.7019 C   0  0  0  0  0  0  0  0  0  0  0  0
   -5.4023   -0.9350    1.4004 C   0  0  0  0  0  0  0  0  0  0  0  0
   -5.9055    0.4183   -0.6623 C   0  0  0  0  0  0  0  0  0  0  0  0
    0.7908    3.2519   -0.5541 H   0  0  0  0  0  0  0  0  0  0  0  0
    0.6487    2.2079   -2.0277 H   0  0  0  0  0  0  0  0  0  0  0  0
    2.1634    2.1951   -1.0561 H   0  0  0  0  0  0  0  0  0  0  0  0
    2.2745    1.9270    1.6662 H   0  0  0  0  0  0  0  0  0  0  0  0
    3.7068    0.4581    3.0050 H   0  0  0  0  0  0  0  0  0  0  0  0
    5.8257   -3.5525    1.6980 H   0  0  0  0  0  0  0  0  0  0  0  0
    6.9210   -2.5217   -0.2747 H   0  0  0  0  0  0  0  0  0  0  0  0
    8.1864   -0.6458   -1.2013 H   0  0  0  0  0  0  0  0  0  0  0  0
    7.2334    1.7228    2.2739 H   0  0  0  0  0  0  0  0  0  0  0  0
    5.9972   -0.1702    3.2160 H   0  0  0  0  0  0  0  0  0  0  0  0
    2.1278   -2.9739    0.9367 H   0  0  0  0  0  0  0  0  0  0  0  0
   -0.4983   -0.9258   -3.6640 H   0  0  0  0  0  0  0  0  0  0  0  0
   -1.4293   -2.3043   -5.4743 H   0  0  0  0  0  0  0  0  0  0  0  0
   -2.9887   -4.8818   -7.2970 H   0  0  0  0  0  0  0  0  0  0  0  0
   -3.2976   -4.8695   -2.5406 H   0  0  0  0  0  0  0  0  0  0  0  0
   -2.3179   -3.5258   -0.7394 H   0  0  0  0  0  0  0  0  0  0  0  0
   -3.3788   -1.2676   -0.4257 H   0  0  0  0  0  0  0  0  0  0  0  0
   -1.1449    2.9593    0.8049 H   0  0  0  0  0  0  0  0  0  0  0  0
   -2.3970    4.7689    1.0189 H   0  0  0  0  0  0  0  0  0  0  0  0
   -4.1085    5.2502    1.1139 H   0  0  0  0  0  0  0  0  0  0  0  0
   -3.5126    4.3811   -0.3484 H   0  0  0  0  0  0  0  0  0  0  0  0
   -3.5606    2.1573    3.3977 H   0  0  0  0  0  0  0  0  0  0  0  0
   -3.9945    3.9092    3.4438 H   0  0  0  0  0  0  0  0  0  0  0  0
   -2.3242    3.3941    3.0174 H   0  0  0  0  0  0  0  0  0  0  0  0
   -5.6372    3.1464    0.2208 H   0  0  0  0  0  0  0  0  0  0  0  0
   -5.8597    3.6450    1.9245 H   0  0  0  0  0  0  0  0  0  0  0  0
   -5.5406    1.3127    2.6895 H   0  0  0  0  0  0  0  0  0  0  0  0
   -6.8988    1.4760    1.5631 H   0  0  0  0  0  0  0  0  0  0  0  0
   -5.1866   -1.7904    0.7278 H   0  0  0  0  0  0  0  0  0  0  0  0
   -6.4653   -1.0398    1.7159 H   0  0  0  0  0  0  0  0  0  0  0  0
   -4.7600   -1.0264    2.3048 H   0  0  0  0  0  0  0  0  0  0  0  0
   -5.5313   -0.4119   -1.2994 H   0  0  0  0  0  0  0  0  0  0  0  0
   -7.0040    0.2741   -0.5276 H   0  0  0  0  0  0  0  0  0  0  0  0
   -5.7333    1.3687   -1.2115 H   0  0  0  0  0  0  0  0  0  0  0  0
  1  2  1  0
  2  3  1  0
  3  4  2  0
  4  5  1  0
  5  6  2  0
  6  7  1  0
  7  8  2  0
  7  9  2  0
  7 10  1  0
 10 11  1  0
 11 12  2  0
 12 13  1  0
 13 14  2  0
 14 15  1  0
 15 16  1  0
 16 17  1  0
 16 18  1  0
 16 19  1  0
 14 20  1  0
 20 21  2  0
  6 22  1  0
 22 23  2  0
 23 24  1  0
 24 25  2  0
 25 26  1  0
 26 27  2  0
 27 28  1  0
 28 29  2  0
 29 30  1  0
 30 31  2  0
 30 32  1  0
 29 33  1  0
 33 34  2  0
 25 35  1  0
 35 36  2  0
 36 37  1  0
 37 38  2  0
 38 39  1  0
 39 40  2  0
 38 41  1  0
 41 42  1  0
 41 43  1  0
 41 44  1  0
 44 45  1  0
 45 46  1  0
 46 47  1  0
 46 48  1  0
 40  2  1  0
 23  3  1  0
 34 26  1  0
 40 35  1  0
 21 11  1  0
 46 37  1  0
  1 49  1  0
  1 50  1  0
  1 51  1  0
  4 52  1  0
  5 53  1  0
 10 54  1  0
 12 55  1  0
 13 56  1  0
 20 57  1  0
 21 58  1  0
 22 59  1  0
 27 60  1  0
 28 61  1  0
 32 62  1  0
 33 63  1  0
 34 64  1  0
 36 65  1  0
 39 66  1  0
 42 67  1  0
 42 68  1  0
 42 69  1  0
 43 70  1  0
 43 71  1  0
 43 72  1  0
 44 73  1  0
 44 74  1  0
 45 75  1  0
 45 76  1  0
 47 77  1  0
 47 78  1  0
 47 79  1  0
 48 80  1  0
 48 81  1  0
 48 82  1  0
M  END
$$$$
