
     RDKit          3D

 99103  0  0  0  0  0  0  0  0999 V2000
   -6.2114   -3.8084   -0.9542 C   0  0  0  0  0  0  0  0  0  0  0  0
   -6.3541   -2.3653   -1.4737 C   0  0  0  0  0  0  0  0  0  0  0  0
   -5.4941   -2.1610   -2.7367 C   0  0  0  0  0  0  0  0  0  0  0  0
   -7.8305   -2.1209   -1.8445 C   0  0  0  0  0  0  0  0  0  0  0  0
   -5.9580   -1.4070   -0.4241 N   0  0  0  0  0  0  0  0  0  0  0  0
   -4.6150   -1.2329    0.0657 C   0  0  0  0  0  0  0  0  0  0  0  0
   -3.7388   -2.1029   -0.1806 O   0  0  0  0  0  0  0  0  0  0  0  0
   -4.2909   -0.0650    0.9790 C   0  0  2  0  0  0  0  0  0  0  0  0
   -4.7303    1.2905    0.4041 C   0  0  0  0  0  0  0  0  0  0  0  0
   -4.6717    2.3587    1.5098 C   0  0  2  0  0  0  0  0  0  0  0  0
   -5.0517    3.7469    0.9267 C   0  0  0  0  0  0  0  0  0  0  0  0
   -4.4512    4.8967    1.7460 C   0  0  0  0  0  0  0  0  0  0  0  0
   -2.9084    4.8403    1.7739 C   0  0  0  0  0  0  0  0  0  0  0  0
   -2.3460    3.4120    1.6133 C   0  0  0  0  0  0  0  0  0  0  0  0
   -3.2982    2.3756    2.2467 C   0  0  2  0  0  0  0  0  0  0  0  0
   -2.6604    0.9678    2.4763 C   0  0  0  0  0  0  0  0  0  0  0  0
   -2.8637   -0.0126    1.3816 N   0  0  0  0  0  0  0  0  0  0  0  0
   -1.8847    0.1538    0.2761 C   0  0  0  0  0  0  0  0  0  0  0  0
   -0.6140   -0.6781    0.5565 C   0  0  2  0  0  0  0  0  0  0  0  0
    0.5953   -0.2603   -0.3302 C   0  0  2  0  0  0  0  0  0  0  0  0
    0.5827   -0.8615   -1.7563 C   0  0  0  0  0  0  0  0  0  0  0  0
   -0.5125   -0.3073   -2.6333 C   0  0  0  0  0  0  0  0  0  0  0  0
   -0.5367    1.0601   -2.9634 C   0  0  0  0  0  0  0  0  0  0  0  0
   -1.5406    1.5678   -3.7925 C   0  0  0  0  0  0  0  0  0  0  0  0
   -2.5143    0.7127   -4.3160 C   0  0  0  0  0  0  0  0  0  0  0  0
   -2.4879   -0.6496   -4.0072 C   0  0  0  0  0  0  0  0  0  0  0  0
   -1.4941   -1.1605   -3.1672 C   0  0  0  0  0  0  0  0  0  0  0  0
    1.8435   -0.6516    0.3351 N   0  0  0  0  0  0  0  0  0  0  0  0
    3.0246    0.1595    0.2614 C   0  0  0  0  0  0  0  0  0  0  0  0
    3.1822    0.9603   -0.7015 O   0  0  0  0  0  0  0  0  0  0  0  0
    4.0572    0.0994    1.3610 C   0  0  2  0  0  0  0  0  0  0  0  0
    4.1612    1.4568    2.0845 C   0  0  0  0  0  0  0  0  0  0  0  0
    2.8520    1.8650    2.7009 C   0  0  0  0  0  0  0  0  0  0  0  0
    2.2468    2.8822    2.2704 O   0  0  0  0  0  0  0  0  0  0  0  0
    2.2853    1.1074    3.7723 N   0  0  0  0  0  0  0  0  0  0  0  0
    5.3641   -0.2832    0.8129 N   0  0  0  0  0  0  0  0  0  0  0  0
    6.4092   -0.8190    1.6436 C   0  0  0  0  0  0  0  0  0  0  0  0
    6.2291   -0.9220    2.8886 O   0  0  0  0  0  0  0  0  0  0  0  0
    7.6903   -1.2643    1.0511 C   0  0  0  0  0  0  0  0  0  0  0  0
    7.8580   -1.2345   -0.3004 N   0  0  0  0  0  0  0  0  0  0  0  0
    9.0064   -1.6516   -0.8984 C   0  0  0  0  0  0  0  0  0  0  0  0
    9.1314   -1.6043   -2.2925 C   0  0  0  0  0  0  0  0  0  0  0  0
   10.3125   -2.0395   -2.9042 C   0  0  0  0  0  0  0  0  0  0  0  0
   11.3704   -2.5229   -2.1272 C   0  0  0  0  0  0  0  0  0  0  0  0
   11.2535   -2.5741   -0.7336 C   0  0  0  0  0  0  0  0  0  0  0  0
   10.0737   -2.1375   -0.1123 C   0  0  0  0  0  0  0  0  0  0  0  0
    9.9264   -2.1738    1.2785 C   0  0  0  0  0  0  0  0  0  0  0  0
    8.7353   -1.7380    1.8630 C   0  0  0  0  0  0  0  0  0  0  0  0
   -0.8853   -2.0475    0.4025 O   0  0  0  0  0  0  0  0  0  0  0  0
   -5.1508   -4.0684   -0.7602 H   0  0  0  0  0  0  0  0  0  0  0  0
   -6.7813   -3.9334   -0.0087 H   0  0  0  0  0  0  0  0  0  0  0  0
   -6.6043   -4.5325   -1.7002 H   0  0  0  0  0  0  0  0  0  0  0  0
   -5.8797   -2.7735   -3.5815 H   0  0  0  0  0  0  0  0  0  0  0  0
   -5.5046   -1.0921   -3.0430 H   0  0  0  0  0  0  0  0  0  0  0  0
   -4.4413   -2.4640   -2.5590 H   0  0  0  0  0  0  0  0  0  0  0  0
   -7.9700   -1.0804   -2.2109 H   0  0  0  0  0  0  0  0  0  0  0  0
   -8.4822   -2.2681   -0.9564 H   0  0  0  0  0  0  0  0  0  0  0  0
   -8.1637   -2.8219   -2.6406 H   0  0  0  0  0  0  0  0  0  0  0  0
   -6.7016   -0.8096    0.0043 H   0  0  0  0  0  0  0  0  0  0  0  0
   -4.9010   -0.2586    1.8918 H   0  0  0  0  0  0  0  0  0  0  0  0
   -4.0790    1.5742   -0.4511 H   0  0  0  0  0  0  0  0  0  0  0  0
   -5.7732    1.2411    0.0249 H   0  0  0  0  0  0  0  0  0  0  0  0
   -5.4441    2.0961    2.2693 H   0  0  0  0  0  0  0  0  0  0  0  0
   -6.1597    3.8472    0.9057 H   0  0  0  0  0  0  0  0  0  0  0  0
   -4.6899    3.8452   -0.1218 H   0  0  0  0  0  0  0  0  0  0  0  0
   -4.8446    4.8409    2.7851 H   0  0  0  0  0  0  0  0  0  0  0  0
   -4.7771    5.8680    1.3159 H   0  0  0  0  0  0  0  0  0  0  0  0
   -2.5001    5.4785    0.9606 H   0  0  0  0  0  0  0  0  0  0  0  0
   -2.5552    5.2677    2.7368 H   0  0  0  0  0  0  0  0  0  0  0  0
   -2.2350    3.2213    0.5275 H   0  0  0  0  0  0  0  0  0  0  0  0
   -1.3395    3.3622    2.0817 H   0  0  0  0  0  0  0  0  0  0  0  0
   -3.4963    2.7583    3.2758 H   0  0  0  0  0  0  0  0  0  0  0  0
   -1.5800    1.0758    2.7141 H   0  0  0  0  0  0  0  0  0  0  0  0
   -3.1109    0.5345    3.3974 H   0  0  0  0  0  0  0  0  0  0  0  0
   -1.6008    1.2114    0.1523 H   0  0  0  0  0  0  0  0  0  0  0  0
   -2.3180   -0.1531   -0.6956 H   0  0  0  0  0  0  0  0  0  0  0  0
   -0.3127   -0.4798    1.6119 H   0  0  0  0  0  0  0  0  0  0  0  0
    0.5914    0.8500   -0.4069 H   0  0  0  0  0  0  0  0  0  0  0  0
    1.5515   -0.6338   -2.2519 H   0  0  0  0  0  0  0  0  0  0  0  0
    0.5205   -1.9694   -1.6940 H   0  0  0  0  0  0  0  0  0  0  0  0
    0.2252    1.7303   -2.5845 H   0  0  0  0  0  0  0  0  0  0  0  0
   -1.5585    2.6224   -4.0368 H   0  0  0  0  0  0  0  0  0  0  0  0
   -3.2854    1.1029   -4.9670 H   0  0  0  0  0  0  0  0  0  0  0  0
   -3.2301   -1.3129   -4.4310 H   0  0  0  0  0  0  0  0  0  0  0  0
   -1.4926   -2.2176   -2.9331 H   0  0  0  0  0  0  0  0  0  0  0  0
    1.8390   -1.4625    0.9969 H   0  0  0  0  0  0  0  0  0  0  0  0
    3.7438   -0.6756    2.0950 H   0  0  0  0  0  0  0  0  0  0  0  0
    4.9250    1.4026    2.8889 H   0  0  0  0  0  0  0  0  0  0  0  0
    4.4957    2.2371    1.3643 H   0  0  0  0  0  0  0  0  0  0  0  0
    1.3607    1.3781    4.1767 H   0  0  0  0  0  0  0  0  0  0  0  0
    2.7889    0.2832    4.1719 H   0  0  0  0  0  0  0  0  0  0  0  0
    5.5436   -0.1667   -0.2104 H   0  0  0  0  0  0  0  0  0  0  0  0
    8.3165   -1.2349   -2.9027 H   0  0  0  0  0  0  0  0  0  0  0  0
   10.4084   -2.0011   -3.9826 H   0  0  0  0  0  0  0  0  0  0  0  0
   12.2828   -2.8576   -2.6061 H   0  0  0  0  0  0  0  0  0  0  0  0
   12.0813   -2.9491   -0.1454 H   0  0  0  0  0  0  0  0  0  0  0  0
   10.7281   -2.5381    1.9089 H   0  0  0  0  0  0  0  0  0  0  0  0
    8.6308   -1.7764    2.9395 H   0  0  0  0  0  0  0  0  0  0  0  0
   -1.3166   -2.3541    1.2417 H   0  0  0  0  0  0  0  0  0  0  0  0
  1  2  1  0
  2  3  1  0
  2  4  1  0
  2  5  1  0
  5  6  1  0
  6  7  2  0
  6  8  1  0
  8  9  1  0
  9 10  1  0
 10 11  1  0
 11 12  1  0
 12 13  1  0
 13 14  1  0
 14 15  1  0
 15 16  1  0
 16 17  1  0
 17 18  1  0
 18 19  1  0
 19 20  1  0
 20 21  1  0
 21 22  1  0
 22 23  2  0
 23 24  1  0
 24 25  2  0
 25 26  1  0
 26 27  2  0
 20 28  1  0
 28 29  1  0
 29 30  2  0
 29 31  1  0
 31 32  1  0
 32 33  1  0
 33 34  2  0
 33 35  1  0
 31 36  1  0
 36 37  1  0
 37 38  2  0
 37 39  1  0
 39 40  2  0
 40 41  1  0
 41 42  2  0
 42 43  1  0
 43 44  2  0
 44 45  1  0
 45 46  2  0
 46 47  1  0
 47 48  2  0
 19 49  1  0
 17  8  1  0
 15 10  1  0
 27 22  1  0
 48 39  1  0
 46 41  1  0
  1 50  1  0
  1 51  1  0
  1 52  1  0
  3 53  1  0
  3 54  1  0
  3 55  1  0
  4 56  1  0
  4 57  1  0
  4 58  1  0
  5 59  1  0
  8 60  1  1
  9 61  1  0
  9 62  1  0
 10 63  1  1
 11 64  1  0
 11 65  1  0
 12 66  1  0
 12 67  1  0
 13 68  1  0
 13 69  1  0
 14 70  1  0
 14 71  1  0
 15 72  1  1
 16 73  1  0
 16 74  1  0
 18 75  1  0
 18 76  1  0
 19 77  1  1
 20 78  1  6
 21 79  1  0
 21 80  1  0
 23 81  1  0
 24 82  1  0
 25 83  1  0
 26 84  1  0
 27 85  1  0
 28 86  1  0
 31 87  1  1
 32 88  1  0
 32 89  1  0
 35 90  1  0
 35 91  1  0
 36 92  1  0
 42 93  1  0
 43 94  1  0
 44 95  1  0
 45 96  1  0
 47 97  1  0
 48 98  1  0
 49 99  1  0
M  END
$$$$

     RDKit          3D

 94 97  0  0  0  0  0  0  0  0999 V2000
    7.6917    2.3377   -3.0155 C   0  0  0  0  0  0  0  0  0  0  0  0
    8.0500    2.5472   -1.5711 C   0  0  0  0  0  0  0  0  0  0  0  0
    7.0671    2.4245   -0.5686 C   0  0  0  0  0  0  0  0  0  0  0  0
    7.4037    2.6594    0.7823 C   0  0  0  0  0  0  0  0  0  0  0  0
    8.7327    2.9554    1.1206 C   0  0  0  0  0  0  0  0  0  0  0  0
    9.7076    3.0599    0.1277 C   0  0  0  0  0  0  0  0  0  0  0  0
    9.3694    2.8644   -1.2120 C   0  0  0  0  0  0  0  0  0  0  0  0
    6.3704    2.5524    1.8696 C   0  0  0  0  0  0  0  0  0  0  0  0
    5.7568    2.0880   -0.9198 O   0  0  0  0  0  0  0  0  0  0  0  0
    5.2833    0.7476   -0.8291 C   0  0  0  0  0  0  0  0  0  0  0  0
    3.8049    0.6935   -1.0588 C   0  0  0  0  0  0  0  0  0  0  0  0
    3.1590    1.7545   -1.2761 O   0  0  0  0  0  0  0  0  0  0  0  0
    3.1313   -0.5728   -1.0130 N   0  0  0  0  0  0  0  0  0  0  0  0
    1.6701   -0.7036   -0.9622 C   0  0  1  0  0  0  0  0  0  0  0  0
    1.2561   -1.8355   -1.9386 C   0  0  0  0  0  0  0  0  0  0  0  0
   -0.1835   -1.7717   -2.3974 C   0  0  0  0  0  0  0  0  0  0  0  0
   -0.6711   -0.6417   -3.0795 C   0  0  0  0  0  0  0  0  0  0  0  0
   -1.9971   -0.6014   -3.5205 C   0  0  0  0  0  0  0  0  0  0  0  0
   -2.8415   -1.6930   -3.3045 C   0  0  0  0  0  0  0  0  0  0  0  0
   -2.3606   -2.8297   -2.6500 C   0  0  0  0  0  0  0  0  0  0  0  0
   -1.0356   -2.8747   -2.2076 C   0  0  0  0  0  0  0  0  0  0  0  0
    1.2434   -0.9583    0.5109 C   0  0  2  0  0  0  0  0  0  0  0  0
   -0.2884   -0.8841    0.7013 C   0  0  0  0  0  0  0  0  0  0  0  0
   -0.7456   -0.9050    2.1841 C   0  0  2  0  0  0  0  0  0  0  0  0
   -0.4264   -2.2425    2.9068 C   0  0  0  0  0  0  0  0  0  0  0  0
   -1.1620   -3.4462    2.3528 C   0  0  0  0  0  0  0  0  0  0  0  0
   -2.3542   -3.8894    2.9545 C   0  0  0  0  0  0  0  0  0  0  0  0
   -3.0310   -5.0030    2.4491 C   0  0  0  0  0  0  0  0  0  0  0  0
   -2.5123   -5.7017    1.3570 C   0  0  0  0  0  0  0  0  0  0  0  0
   -1.3091   -5.2957    0.7769 C   0  0  0  0  0  0  0  0  0  0  0  0
   -0.6311   -4.1802    1.2769 C   0  0  0  0  0  0  0  0  0  0  0  0
   -2.1784   -0.5897    2.2730 N   0  0  0  0  0  0  0  0  0  0  0  0
   -2.7154    0.6739    1.8503 C   0  0  0  0  0  0  0  0  0  0  0  0
   -1.9592    1.6837    1.8046 O   0  0  0  0  0  0  0  0  0  0  0  0
   -4.1981    0.8422    1.5685 C   0  0  2  0  0  0  0  0  0  0  0  0
   -4.9068   -0.4341    1.0080 C   0  0  0  0  0  0  0  0  0  0  0  0
   -6.4136   -0.2029    0.8260 C   0  0  0  0  0  0  0  0  0  0  0  0
   -4.3014   -0.9833   -0.2924 C   0  0  0  0  0  0  0  0  0  0  0  0
   -4.4605    2.0379    0.7305 N   0  0  0  0  0  0  0  0  0  0  0  0
   -5.3364    3.0990    1.2480 C   0  0  0  0  0  0  0  0  0  0  0  0
   -6.1850    3.6945    0.1238 C   0  0  0  0  0  0  0  0  0  0  0  0
   -5.2944    4.2791   -0.9758 C   0  0  0  0  0  0  0  0  0  0  0  0
   -4.2556    3.3363   -1.3878 N   0  0  0  0  0  0  0  0  0  0  0  0
   -3.8148    2.2657   -0.5431 C   0  0  0  0  0  0  0  0  0  0  0  0
   -2.8527    1.5448   -0.9192 O   0  0  0  0  0  0  0  0  0  0  0  0
    1.8455    0.0134    1.3332 O   0  0  0  0  0  0  0  0  0  0  0  0
    7.3233    1.3020   -3.1663 H   0  0  0  0  0  0  0  0  0  0  0  0
    6.8964    3.0537   -3.3108 H   0  0  0  0  0  0  0  0  0  0  0  0
    8.5662    2.4960   -3.6815 H   0  0  0  0  0  0  0  0  0  0  0  0
    9.0133    3.1135    2.1546 H   0  0  0  0  0  0  0  0  0  0  0  0
   10.7285    3.2973    0.3977 H   0  0  0  0  0  0  0  0  0  0  0  0
   10.1401    2.9547   -1.9675 H   0  0  0  0  0  0  0  0  0  0  0  0
    5.3728    2.8707    1.5008 H   0  0  0  0  0  0  0  0  0  0  0  0
    6.6338    3.2056    2.7283 H   0  0  0  0  0  0  0  0  0  0  0  0
    6.3113    1.5027    2.2239 H   0  0  0  0  0  0  0  0  0  0  0  0
    5.4999    0.3341    0.1787 H   0  0  0  0  0  0  0  0  0  0  0  0
    5.7947    0.1203   -1.5898 H   0  0  0  0  0  0  0  0  0  0  0  0
    3.7064   -1.4287   -0.8429 H   0  0  0  0  0  0  0  0  0  0  0  0
    1.2114    0.2502   -1.2993 H   0  0  0  0  0  0  0  0  0  0  0  0
    1.4833   -2.8212   -1.4758 H   0  0  0  0  0  0  0  0  0  0  0  0
    1.8865   -1.7671   -2.8522 H   0  0  0  0  0  0  0  0  0  0  0  0
   -0.0252    0.2042   -3.2779 H   0  0  0  0  0  0  0  0  0  0  0  0
   -2.3689    0.2749   -4.0353 H   0  0  0  0  0  0  0  0  0  0  0  0
   -3.8675   -1.6592   -3.6466 H   0  0  0  0  0  0  0  0  0  0  0  0
   -3.0145   -3.6767   -2.4862 H   0  0  0  0  0  0  0  0  0  0  0  0
   -0.6765   -3.7673   -1.7129 H   0  0  0  0  0  0  0  0  0  0  0  0
    1.5925   -1.9748    0.8049 H   0  0  0  0  0  0  0  0  0  0  0  0
   -0.6452    0.0536    0.2249 H   0  0  0  0  0  0  0  0  0  0  0  0
   -0.7843   -1.7176    0.1746 H   0  0  0  0  0  0  0  0  0  0  0  0
   -0.1985   -0.1086    2.7340 H   0  0  0  0  0  0  0  0  0  0  0  0
    0.6672   -2.4348    2.8904 H   0  0  0  0  0  0  0  0  0  0  0  0
   -0.6843   -2.1223    3.9823 H   0  0  0  0  0  0  0  0  0  0  0  0
   -2.7633   -3.3715    3.8131 H   0  0  0  0  0  0  0  0  0  0  0  0
   -3.9552   -5.3274    2.9089 H   0  0  0  0  0  0  0  0  0  0  0  0
   -3.0368   -6.5643    0.9680 H   0  0  0  0  0  0  0  0  0  0  0  0
   -0.8990   -5.8475   -0.0592 H   0  0  0  0  0  0  0  0  0  0  0  0
    0.3065   -3.8941    0.8230 H   0  0  0  0  0  0  0  0  0  0  0  0
   -2.8299   -1.2710    2.7143 H   0  0  0  0  0  0  0  0  0  0  0  0
   -4.6428    1.0083    2.5751 H   0  0  0  0  0  0  0  0  0  0  0  0
   -4.8193   -1.2376    1.7698 H   0  0  0  0  0  0  0  0  0  0  0  0
   -6.9171   -1.1599    0.5694 H   0  0  0  0  0  0  0  0  0  0  0  0
   -6.8629    0.1814    1.7668 H   0  0  0  0  0  0  0  0  0  0  0  0
   -6.6068    0.5231    0.0088 H   0  0  0  0  0  0  0  0  0  0  0  0
   -4.7103   -1.9955   -0.4971 H   0  0  0  0  0  0  0  0  0  0  0  0
   -4.5566   -0.3367   -1.1575 H   0  0  0  0  0  0  0  0  0  0  0  0
   -3.1998   -1.0786   -0.2143 H   0  0  0  0  0  0  0  0  0  0  0  0
   -4.7121    3.8962    1.7060 H   0  0  0  0  0  0  0  0  0  0  0  0
   -6.0207    2.7053    2.0305 H   0  0  0  0  0  0  0  0  0  0  0  0
   -6.8368    2.9057   -0.3086 H   0  0  0  0  0  0  0  0  0  0  0  0
   -6.8382    4.4950    0.5338 H   0  0  0  0  0  0  0  0  0  0  0  0
   -5.9276    4.5317   -1.8532 H   0  0  0  0  0  0  0  0  0  0  0  0
   -4.8136    5.2139   -0.6162 H   0  0  0  0  0  0  0  0  0  0  0  0
   -3.7475    3.5176   -2.2831 H   0  0  0  0  0  0  0  0  0  0  0  0
    2.7055   -0.3645    1.6580 H   0  0  0  0  0  0  0  0  0  0  0  0
  1  2  1  0
  2  3  2  0
  3  4  1  0
  4  5  2  0
  5  6  1  0
  6  7  2  0
  4  8  1  0
  3  9  1  0
  9 10  1  0
 10 11  1  0
 11 12  2  0
 11 13  1  0
 13 14  1  0
 14 15  1  0
 15 16  1  0
 16 17  2  0
 17 18  1  0
 18 19  2  0
 19 20  1  0
 20 21  2  0
 14 22  1  0
 22 23  1  0
 23 24  1  0
 24 25  1  0
 25 26  1  0
 26 27  2  0
 27 28  1  0
 28 29  2  0
 29 30  1  0
 30 31  2  0
 24 32  1  0
 32 33  1  0
 33 34  2  0
 33 35  1  0
 35 36  1  0
 36 37  1  0
 36 38  1  0
 35 39  1  0
 39 40  1  0
 40 41  1  0
 41 42  1  0
 42 43  1  0
 43 44  1  0
 44 45  2  0
 22 46  1  0
  7  2  1  0
 21 16  1  0
 31 26  1  0
 44 39  1  0
  1 47  1  0
  1 48  1  0
  1 49  1  0
  5 50  1  0
  6 51  1  0
  7 52  1  0
  8 53  1  0
  8 54  1  0
  8 55  1  0
 10 56  1  0
 10 57  1  0
 13 58  1  0
 14 59  1  6
 15 60  1  0
 15 61  1  0
 17 62  1  0
 18 63  1  0
 19 64  1  0
 20 65  1  0
 21 66  1  0
 22 67  1  1
 23 68  1  0
 23 69  1  0
 24 70  1  1
 25 71  1  0
 25 72  1  0
 27 73  1  0
 28 74  1  0
 29 75  1  0
 30 76  1  0
 31 77  1  0
 32 78  1  0
 35 79  1  1
 36 80  1  0
 37 81  1  0
 37 82  1  0
 37 83  1  0
 38 84  1  0
 38 85  1  0
 38 86  1  0
 40 87  1  0
 40 88  1  0
 41 89  1  0
 41 90  1  0
 42 91  1  0
 42 92  1  0
 43 93  1  0
 46 94  1  0
M  END
$$$$

     RDKit          3D

 75 78  0  0  0  0  0  0  0  0999 V2000
   -4.5844    2.3579   -1.8712 C   0  0  0  0  0  0  0  0  0  0  0  0
   -3.5805    1.6913   -0.9364 C   0  0  0  0  0  0  0  0  0  0  0  0
   -4.2844    0.7235    0.0275 C   0  0  0  0  0  0  0  0  0  0  0  0
   -3.3402    0.0180    1.0444 C   0  0  1  0  0  0  0  0  0  0  0  0
   -2.3940   -1.0065    0.3430 C   0  0  0  0  0  0  0  0  0  0  0  0
   -1.1457   -0.3940   -0.2502 C   0  0  0  0  0  0  0  0  0  0  0  0
   -0.5702    0.6936    0.3051 C   0  0  0  0  0  0  0  0  0  0  0  0
   -1.2429    1.3019    1.4742 C   0  0  0  0  0  0  0  0  0  0  0  0
   -0.6319    2.1074    2.2244 O   0  0  0  0  0  0  0  0  0  0  0  0
   -2.5815    1.0146    1.7398 O   0  0  0  0  0  0  0  0  0  0  0  0
    0.7274    1.3252   -0.2047 C   0  0  2  0  0  0  0  0  0  0  0  0
    0.7507    1.5835   -1.7330 C   0  0  0  0  0  0  0  0  0  0  0  0
    1.8750    2.5395   -2.1367 C   0  0  0  0  0  0  0  0  0  0  0  0
    1.9445    0.5716    0.3120 C   0  0  0  0  0  0  0  0  0  0  0  0
    2.3881   -0.6256   -0.2834 C   0  0  0  0  0  0  0  0  0  0  0  0
    3.5307   -1.2892    0.1907 C   0  0  0  0  0  0  0  0  0  0  0  0
    4.2163   -0.7653    1.2994 C   0  0  0  0  0  0  0  0  0  0  0  0
    3.7775    0.4123    1.9053 C   0  0  0  0  0  0  0  0  0  0  0  0
    2.6538    1.0793    1.4153 C   0  0  0  0  0  0  0  0  0  0  0  0
    3.9638   -2.4930   -0.4662 N   0  0  0  0  0  0  0  0  0  0  0  0
    5.5649   -3.1473   -0.3232 S   0  0  0  0  0  0  0  0  0  0  0  0
    5.7022   -3.8409    1.0037 O   0  0  0  0  0  0  0  0  0  0  0  0
    5.7934   -4.1448   -1.4241 O   0  0  0  0  0  0  0  0  0  0  0  0
    6.7589   -1.8670   -0.4643 C   0  0  0  0  0  0  0  0  0  0  0  0
    7.7210   -1.7324    0.4867 N   0  0  0  0  0  0  0  0  0  0  0  0
    8.6514   -0.7428    0.4320 C   0  0  0  0  0  0  0  0  0  0  0  0
    8.6364    0.1868   -0.6212 C   0  0  0  0  0  0  0  0  0  0  0  0
    7.6635    0.0445   -1.6242 C   0  0  0  0  0  0  0  0  0  0  0  0
    6.7158   -0.9770   -1.5415 C   0  0  0  0  0  0  0  0  0  0  0  0
    9.7017    1.2500   -0.7132 C   0  0  0  0  0  0  0  0  0  0  0  0
   10.0026    1.7363    0.5453 F   0  0  0  0  0  0  0  0  0  0  0  0
    9.2827    2.3090   -1.4993 F   0  0  0  0  0  0  0  0  0  0  0  0
   10.8429    0.7029   -1.2690 F   0  0  0  0  0  0  0  0  0  0  0  0
   -0.5884   -1.0050   -1.3707 O   0  0  0  0  0  0  0  0  0  0  0  0
   -4.1795   -0.7072    2.1379 C   0  0  0  0  0  0  0  0  0  0  0  0
   -5.1471   -1.8156    1.6555 C   0  0  0  0  0  0  0  0  0  0  0  0
   -6.5077   -1.2897    1.2571 C   0  0  0  0  0  0  0  0  0  0  0  0
   -6.9944   -1.4858   -0.0482 C   0  0  0  0  0  0  0  0  0  0  0  0
   -8.2553   -1.0050   -0.4124 C   0  0  0  0  0  0  0  0  0  0  0  0
   -9.0482   -0.3398    0.5255 C   0  0  0  0  0  0  0  0  0  0  0  0
   -8.5861   -0.1630    1.8322 C   0  0  0  0  0  0  0  0  0  0  0  0
   -7.3265   -0.6432    2.2012 C   0  0  0  0  0  0  0  0  0  0  0  0
   -4.0533    3.0593   -2.5507 H   0  0  0  0  0  0  0  0  0  0  0  0
   -5.3339    2.9336   -1.2880 H   0  0  0  0  0  0  0  0  0  0  0  0
   -5.1051    1.5940   -2.4865 H   0  0  0  0  0  0  0  0  0  0  0  0
   -3.0471    2.4822   -0.3676 H   0  0  0  0  0  0  0  0  0  0  0  0
   -2.8478    1.1434   -1.5626 H   0  0  0  0  0  0  0  0  0  0  0  0
   -4.8025   -0.0418   -0.5851 H   0  0  0  0  0  0  0  0  0  0  0  0
   -5.0575    1.2922    0.5894 H   0  0  0  0  0  0  0  0  0  0  0  0
   -2.9465   -1.5510   -0.4528 H   0  0  0  0  0  0  0  0  0  0  0  0
   -2.0496   -1.7706    1.0742 H   0  0  0  0  0  0  0  0  0  0  0  0
    0.7632    2.3489    0.2309 H   0  0  0  0  0  0  0  0  0  0  0  0
   -0.2178    2.0378   -2.0402 H   0  0  0  0  0  0  0  0  0  0  0  0
    0.8791    0.6492   -2.3142 H   0  0  0  0  0  0  0  0  0  0  0  0
    1.7509    3.5221   -1.6333 H   0  0  0  0  0  0  0  0  0  0  0  0
    2.8635    2.1100   -1.8677 H   0  0  0  0  0  0  0  0  0  0  0  0
    1.8493    2.7033   -3.2355 H   0  0  0  0  0  0  0  0  0  0  0  0
    1.8704   -1.0388   -1.1348 H   0  0  0  0  0  0  0  0  0  0  0  0
    5.0776   -1.2680    1.7130 H   0  0  0  0  0  0  0  0  0  0  0  0
    4.3110    0.8124    2.7584 H   0  0  0  0  0  0  0  0  0  0  0  0
    2.3363    1.9941    1.9032 H   0  0  0  0  0  0  0  0  0  0  0  0
    3.3117   -2.9714   -1.1284 H   0  0  0  0  0  0  0  0  0  0  0  0
    9.4046   -0.6828    1.2067 H   0  0  0  0  0  0  0  0  0  0  0  0
    7.6370    0.7192   -2.4713 H   0  0  0  0  0  0  0  0  0  0  0  0
    5.9595   -1.0776   -2.3093 H   0  0  0  0  0  0  0  0  0  0  0  0
   -1.0036   -1.8301   -1.7895 H   0  0  0  0  0  0  0  0  0  0  0  0
   -3.4707   -1.1702    2.8602 H   0  0  0  0  0  0  0  0  0  0  0  0
   -4.7334    0.0517    2.7317 H   0  0  0  0  0  0  0  0  0  0  0  0
   -5.2992   -2.5333    2.4912 H   0  0  0  0  0  0  0  0  0  0  0  0
   -4.6898   -2.4005    0.8315 H   0  0  0  0  0  0  0  0  0  0  0  0
   -6.3928   -2.0014   -0.7875 H   0  0  0  0  0  0  0  0  0  0  0  0
   -8.6190   -1.1493   -1.4218 H   0  0  0  0  0  0  0  0  0  0  0  0
  -10.0235    0.0321    0.2420 H   0  0  0  0  0  0  0  0  0  0  0  0
   -9.2065    0.3442    2.5609 H   0  0  0  0  0  0  0  0  0  0  0  0
   -6.9906   -0.5117    3.2227 H   0  0  0  0  0  0  0  0  0  0  0  0
  1  2  1  0
  2  3  1  0
  4  3  1  6
  4  5  1  0
  5  6  1  0
  6  7  2  0
  7  8  1  0
  8  9  2  0
  8 10  1  0
  7 11  1  0
 11 12  1  0
 12 13  1  0
 11 14  1  0
 14 15  2  0
 15 16  1  0
 16 17  2  0
 17 18  1  0
 18 19  2  0
 16 20  1  0
 20 21  1  0
 21 22  2  0
 21 23  2  0
 21 24  1  0
 24 25  2  0
 25 26  1  0
 26 27  2  0
 27 28  1  0
 28 29  2  0
 27 30  1  0
 30 31  1  0
 30 32  1  0
 30 33  1  0
  6 34  1  0
  4 35  1  0
 35 36  1  0
 36 37  1  0
 37 38  2  0
 38 39  1  0
 39 40  2  0
 40 41  1  0
 41 42  2  0
 10  4  1  0
 19 14  1  0
 29 24  1  0
 42 37  1  0
  1 43  1  0
  1 44  1  0
  1 45  1  0
  2 46  1  0
  2 47  1  0
  3 48  1  0
  3 49  1  0
  5 50  1  0
  5 51  1  0
 11 52  1  1
 12 53  1  0
 12 54  1  0
 13 55  1  0
 13 56  1  0
 13 57  1  0
 15 58  1  0
 17 59  1  0
 18 60  1  0
 19 61  1  0
 20 62  1  0
 26 63  1  0
 28 64  1  0
 29 65  1  0
 34 66  1  0
 35 67  1  0
 35 68  1  0
 36 69  1  0
 36 70  1  0
 38 71  1  0
 39 72  1  0
 40 73  1  0
 41 74  1  0
 42 75  1  0
M  END
$$$$

     RDKit          3D

 75 78  0  0  0  0  0  0  0  0999 V2000
   -4.2965   -0.9614   -3.4657 C   0  0  0  0  0  0  0  0  0  0  0  0
   -3.5709    0.0553   -2.5759 C   0  0  0  0  0  0  0  0  0  0  0  0
   -2.9119    1.1390   -3.4406 C   0  0  0  0  0  0  0  0  0  0  0  0
   -2.5356   -0.6588   -1.6835 C   0  0  0  0  0  0  0  0  0  0  0  0
   -1.8232    0.2992   -0.8099 N   0  0  0  0  0  0  0  0  0  0  0  0
   -0.3916   -0.0220   -0.6096 C   0  0  0  0  0  0  0  0  0  0  0  0
   -0.1127   -1.2702    0.2795 C   0  0  2  0  0  0  0  0  0  0  0  0
    1.4141   -1.5092    0.4604 C   0  0  2  0  0  0  0  0  0  0  0  0
    1.7166   -2.6892    1.4123 C   0  0  0  0  0  0  0  0  0  0  0  0
    1.3947   -4.0348    0.8095 C   0  0  0  0  0  0  0  0  0  0  0  0
    0.3601   -4.8241    1.3410 C   0  0  0  0  0  0  0  0  0  0  0  0
    0.0612   -6.0677    0.7763 C   0  0  0  0  0  0  0  0  0  0  0  0
    0.7966   -6.5369   -0.3153 C   0  0  0  0  0  0  0  0  0  0  0  0
    1.8353   -5.7650   -0.8418 C   0  0  0  0  0  0  0  0  0  0  0  0
    2.1374   -4.5203   -0.2808 C   0  0  0  0  0  0  0  0  0  0  0  0
    2.0397   -0.3035    1.0154 N   0  0  0  0  0  0  0  0  0  0  0  0
    3.0718    0.4313    0.3462 C   0  0  0  0  0  0  0  0  0  0  0  0
    3.5229    0.0361   -0.7638 O   0  0  0  0  0  0  0  0  0  0  0  0
    3.5782    1.5895    0.9458 O   0  0  0  0  0  0  0  0  0  0  0  0
    4.6358    2.3760    0.3878 C   0  0  1  0  0  0  0  0  0  0  0  0
    4.4350    3.8204    0.7931 C   0  0  0  0  0  0  0  0  0  0  0  0
    5.0610    4.0193    2.0358 O   0  0  0  0  0  0  0  0  0  0  0  0
    6.1267    3.0977    2.1109 C   0  0  2  0  0  0  0  0  0  0  0  0
    5.9927    2.0681    1.0048 C   0  0  1  0  0  0  0  0  0  0  0  0
    6.1416    0.7491    1.7204 C   0  0  0  0  0  0  0  0  0  0  0  0
    5.8044    1.0978    3.1522 C   0  0  0  0  0  0  0  0  0  0  0  0
    6.1057    2.4561    3.3689 O   0  0  0  0  0  0  0  0  0  0  0  0
   -0.7350   -2.4099   -0.2572 O   0  0  0  0  0  0  0  0  0  0  0  0
   -2.6629    0.6095    0.6983 S   0  0  0  0  0  0  0  0  0  0  0  0
   -3.1390   -0.6826    1.3044 O   0  0  0  0  0  0  0  0  0  0  0  0
   -1.7430    1.2884    1.6750 O   0  0  0  0  0  0  0  0  0  0  0  0
   -4.0296    1.6804    0.4109 C   0  0  0  0  0  0  0  0  0  0  0  0
   -5.3327    1.2914    0.7523 C   0  0  0  0  0  0  0  0  0  0  0  0
   -6.4107    2.1428    0.4915 C   0  0  0  0  0  0  0  0  0  0  0  0
   -6.1961    3.3889   -0.1144 C   0  0  0  0  0  0  0  0  0  0  0  0
   -4.8926    3.7769   -0.4539 C   0  0  0  0  0  0  0  0  0  0  0  0
   -3.8147    2.9274   -0.1897 C   0  0  0  0  0  0  0  0  0  0  0  0
   -7.2997    4.2564   -0.3866 N   0  0  0  0  0  0  0  0  0  0  0  0
   -5.0690   -0.4513   -4.0798 H   0  0  0  0  0  0  0  0  0  0  0  0
   -3.5805   -1.4746   -4.1438 H   0  0  0  0  0  0  0  0  0  0  0  0
   -4.8054   -1.7237   -2.8382 H   0  0  0  0  0  0  0  0  0  0  0  0
   -4.3386    0.5357   -1.9385 H   0  0  0  0  0  0  0  0  0  0  0  0
   -2.4508    1.9201   -2.8001 H   0  0  0  0  0  0  0  0  0  0  0  0
   -3.6723    1.6328   -4.0823 H   0  0  0  0  0  0  0  0  0  0  0  0
   -2.1263    0.6976   -4.0906 H   0  0  0  0  0  0  0  0  0  0  0  0
   -1.8216   -1.1784   -2.3605 H   0  0  0  0  0  0  0  0  0  0  0  0
   -3.0397   -1.4457   -1.0828 H   0  0  0  0  0  0  0  0  0  0  0  0
    0.1013   -0.1548   -1.5980 H   0  0  0  0  0  0  0  0  0  0  0  0
    0.0951    0.8685   -0.1589 H   0  0  0  0  0  0  0  0  0  0  0  0
   -0.5373   -1.0957    1.2894 H   0  0  0  0  0  0  0  0  0  0  0  0
    1.8528   -1.7346   -0.5360 H   0  0  0  0  0  0  0  0  0  0  0  0
    1.1637   -2.5421    2.3667 H   0  0  0  0  0  0  0  0  0  0  0  0
    2.7988   -2.6824    1.6703 H   0  0  0  0  0  0  0  0  0  0  0  0
   -0.2221   -4.4734    2.1839 H   0  0  0  0  0  0  0  0  0  0  0  0
   -0.7409   -6.6676    1.1855 H   0  0  0  0  0  0  0  0  0  0  0  0
    0.5632   -7.4994   -0.7521 H   0  0  0  0  0  0  0  0  0  0  0  0
    2.4062   -6.1308   -1.6853 H   0  0  0  0  0  0  0  0  0  0  0  0
    2.9486   -3.9353   -0.6959 H   0  0  0  0  0  0  0  0  0  0  0  0
    1.7155    0.0447    1.9460 H   0  0  0  0  0  0  0  0  0  0  0  0
    4.6575    2.2926   -0.7223 H   0  0  0  0  0  0  0  0  0  0  0  0
    3.3544    4.0688    0.8702 H   0  0  0  0  0  0  0  0  0  0  0  0
    4.8966    4.4980    0.0406 H   0  0  0  0  0  0  0  0  0  0  0  0
    7.0890    3.6454    2.0062 H   0  0  0  0  0  0  0  0  0  0  0  0
    6.7945    2.1985    0.2427 H   0  0  0  0  0  0  0  0  0  0  0  0
    5.5044   -0.0634    1.3172 H   0  0  0  0  0  0  0  0  0  0  0  0
    7.2028    0.4214    1.6662 H   0  0  0  0  0  0  0  0  0  0  0  0
    6.3900    0.4668    3.8541 H   0  0  0  0  0  0  0  0  0  0  0  0
    4.7223    0.9294    3.3436 H   0  0  0  0  0  0  0  0  0  0  0  0
   -0.3043   -2.6017   -1.1312 H   0  0  0  0  0  0  0  0  0  0  0  0
   -5.5184    0.3300    1.2132 H   0  0  0  0  0  0  0  0  0  0  0  0
   -7.4125    1.8296    0.7577 H   0  0  0  0  0  0  0  0  0  0  0  0
   -4.7125    4.7350   -0.9247 H   0  0  0  0  0  0  0  0  0  0  0  0
   -2.8135    3.2363   -0.4619 H   0  0  0  0  0  0  0  0  0  0  0  0
   -7.1502    5.1860   -0.8387 H   0  0  0  0  0  0  0  0  0  0  0  0
   -8.2739    3.9763   -0.1361 H   0  0  0  0  0  0  0  0  0  0  0  0
  1  2  1  0
  2  3  1  0
  2  4  1  0
  4  5  1  0
  5  6  1  0
  6  7  1  0
  7  8  1  0
  8  9  1  0
  9 10  1  0
 10 11  2  0
 11 12  1  0
 12 13  2  0
 13 14  1  0
 14 15  2  0
  8 16  1  0
 16 17  1  0
 17 18  2  0
 17 19  1  0
 19 20  1  0
 20 21  1  0
 21 22  1  0
 22 23  1  0
 23 24  1  0
 24 25  1  0
 25 26  1  0
 26 27  1  0
  7 28  1  0
  5 29  1  0
 29 30  2  0
 29 31  2  0
 29 32  1  0
 32 33  2  0
 33 34  1  0
 34 35  2  0
 35 36  1  0
 36 37  2  0
 35 38  1  0
 15 10  1  0
 24 20  1  0
 27 23  1  0
 37 32  1  0
  1 39  1  0
  1 40  1  0
  1 41  1  0
  2 42  1  0
  3 43  1  0
  3 44  1  0
  3 45  1  0
  4 46  1  0
  4 47  1  0
  6 48  1  0
  6 49  1  0
  7 50  1  1
  8 51  1  6
  9 52  1  0
  9 53  1  0
 11 54  1  0
 12 55  1  0
 13 56  1  0
 14 57  1  0
 15 58  1  0
 16 59  1  0
 20 60  1  6
 21 61  1  0
 21 62  1  0
 23 63  1  6
 24 64  1  6
 25 65  1  0
 25 66  1  0
 26 67  1  0
 26 68  1  0
 28 69  1  0
 33 70  1  0
 34 71  1  0
 36 72  1  0
 37 73  1  0
 38 74  1  0
 38 75  1  0
M  END
$$$$

     RDKit          3D

 70 72  0  0  0  0  0  0  0  0999 V2000
   -4.3072   -2.5983   -2.5864 C   0  0  0  0  0  0  0  0  0  0  0  0
   -3.8079   -1.1572   -2.7623 C   0  0  0  0  0  0  0  0  0  0  0  0
   -4.8609   -0.3188   -3.4972 C   0  0  0  0  0  0  0  0  0  0  0  0
   -3.4727   -0.5185   -1.3985 C   0  0  0  0  0  0  0  0  0  0  0  0
   -2.3356   -1.2139   -0.7580 N   0  0  0  0  0  0  0  0  0  0  0  0
   -1.0406   -0.6632   -1.2208 C   0  0  0  0  0  0  0  0  0  0  0  0
    0.0451   -1.7572   -1.2557 C   0  0  2  0  0  0  0  0  0  0  0  0
    1.4481   -1.1334   -1.4527 C   0  0  2  0  0  0  0  0  0  0  0  0
    2.5580   -2.1918   -1.6444 C   0  0  0  0  0  0  0  0  0  0  0  0
    2.7190   -3.1216   -0.4648 C   0  0  0  0  0  0  0  0  0  0  0  0
    3.5392   -2.7608    0.6183 C   0  0  0  0  0  0  0  0  0  0  0  0
    3.6941   -3.6270    1.7050 C   0  0  0  0  0  0  0  0  0  0  0  0
    3.0420   -4.8629    1.7141 C   0  0  0  0  0  0  0  0  0  0  0  0
    2.2370   -5.2363    0.6345 C   0  0  0  0  0  0  0  0  0  0  0  0
    2.0785   -4.3727   -0.4535 C   0  0  0  0  0  0  0  0  0  0  0  0
    1.7764   -0.2617   -0.3166 N   0  0  0  0  0  0  0  0  0  0  0  0
    2.1264    1.1199   -0.4575 C   0  0  0  0  0  0  0  0  0  0  0  0
    2.2648    1.6317   -1.6028 O   0  0  0  0  0  0  0  0  0  0  0  0
    2.3170    1.8944    0.6912 O   0  0  0  0  0  0  0  0  0  0  0  0
    2.7370    3.2584    0.6500 C   0  0  1  0  0  0  0  0  0  0  0  0
    2.6965    3.8713    2.0156 C   0  0  0  0  0  0  0  0  0  0  0  0
    3.8623    4.8385    1.9881 C   0  0  0  0  0  0  0  0  0  0  0  0
    4.7877    4.4350    1.0031 O   0  0  0  0  0  0  0  0  0  0  0  0
    4.2022    3.3841    0.2689 C   0  0  0  0  0  0  0  0  0  0  0  0
   -0.2292   -2.6439   -2.3105 O   0  0  0  0  0  0  0  0  0  0  0  0
   -2.4680   -1.0987    0.9892 S   0  0  0  0  0  0  0  0  0  0  0  0
   -3.8173   -1.5937    1.4337 O   0  0  0  0  0  0  0  0  0  0  0  0
   -1.4287   -1.9704    1.6379 O   0  0  0  0  0  0  0  0  0  0  0  0
   -2.2572    0.5659    1.5414 C   0  0  0  0  0  0  0  0  0  0  0  0
   -3.3052    1.4880    1.4154 C   0  0  0  0  0  0  0  0  0  0  0  0
   -3.1267    2.8162    1.8162 C   0  0  0  0  0  0  0  0  0  0  0  0
   -1.8998    3.2336    2.3521 C   0  0  0  0  0  0  0  0  0  0  0  0
   -0.8550    2.3087    2.4884 C   0  0  0  0  0  0  0  0  0  0  0  0
   -1.0317    0.9827    2.0833 C   0  0  0  0  0  0  0  0  0  0  0  0
   -1.7141    4.5941    2.7524 N   0  0  0  0  0  0  0  0  0  0  0  0
   -3.5237   -3.2229   -2.1080 H   0  0  0  0  0  0  0  0  0  0  0  0
   -5.2221   -2.6232   -1.9551 H   0  0  0  0  0  0  0  0  0  0  0  0
   -4.5452   -3.0453   -3.5758 H   0  0  0  0  0  0  0  0  0  0  0  0
   -2.8951   -1.1839   -3.3964 H   0  0  0  0  0  0  0  0  0  0  0  0
   -4.4794    0.7104   -3.6702 H   0  0  0  0  0  0  0  0  0  0  0  0
   -5.7990   -0.2590   -2.9041 H   0  0  0  0  0  0  0  0  0  0  0  0
   -5.0904   -0.7711   -4.4860 H   0  0  0  0  0  0  0  0  0  0  0  0
   -3.2496    0.5663   -1.5212 H   0  0  0  0  0  0  0  0  0  0  0  0
   -4.3885   -0.5793   -0.7709 H   0  0  0  0  0  0  0  0  0  0  0  0
   -1.1213   -0.2504   -2.2512 H   0  0  0  0  0  0  0  0  0  0  0  0
   -0.7255    0.1920   -0.5900 H   0  0  0  0  0  0  0  0  0  0  0  0
    0.0518   -2.3109   -0.2923 H   0  0  0  0  0  0  0  0  0  0  0  0
    1.4178   -0.5370   -2.3918 H   0  0  0  0  0  0  0  0  0  0  0  0
    2.3515   -2.7822   -2.5634 H   0  0  0  0  0  0  0  0  0  0  0  0
    3.5220   -1.6702   -1.8326 H   0  0  0  0  0  0  0  0  0  0  0  0
    4.0551   -1.8086    0.6218 H   0  0  0  0  0  0  0  0  0  0  0  0
    4.3224   -3.3410    2.5389 H   0  0  0  0  0  0  0  0  0  0  0  0
    3.1644   -5.5328    2.5555 H   0  0  0  0  0  0  0  0  0  0  0  0
    1.7373   -6.1964    0.6391 H   0  0  0  0  0  0  0  0  0  0  0  0
    1.4534   -4.6771   -1.2833 H   0  0  0  0  0  0  0  0  0  0  0  0
    1.7103   -0.6482    0.6520 H   0  0  0  0  0  0  0  0  0  0  0  0
    2.0972    3.8484   -0.0459 H   0  0  0  0  0  0  0  0  0  0  0  0
    1.7339    4.3964    2.2020 H   0  0  0  0  0  0  0  0  0  0  0  0
    2.8653    3.0990    2.8000 H   0  0  0  0  0  0  0  0  0  0  0  0
    3.5000    5.8611    1.7410 H   0  0  0  0  0  0  0  0  0  0  0  0
    4.3623    4.8719    2.9806 H   0  0  0  0  0  0  0  0  0  0  0  0
    4.3013    3.5889   -0.8183 H   0  0  0  0  0  0  0  0  0  0  0  0
    4.7471    2.4425    0.5018 H   0  0  0  0  0  0  0  0  0  0  0  0
   -0.9282   -3.2694   -1.9869 H   0  0  0  0  0  0  0  0  0  0  0  0
   -4.2574    1.1822    1.0025 H   0  0  0  0  0  0  0  0  0  0  0  0
   -3.9412    3.5207    1.7050 H   0  0  0  0  0  0  0  0  0  0  0  0
    0.0959    2.6133    2.9071 H   0  0  0  0  0  0  0  0  0  0  0  0
   -0.2079    0.2879    2.1831 H   0  0  0  0  0  0  0  0  0  0  0  0
   -0.7960    4.9211    3.1313 H   0  0  0  0  0  0  0  0  0  0  0  0
   -2.4920    5.2862    2.6648 H   0  0  0  0  0  0  0  0  0  0  0  0
  1  2  1  0
  2  3  1  0
  2  4  1  0
  4  5  1  0
  5  6  1  0
  6  7  1  0
  7  8  1  0
  8  9  1  0
  9 10  1  0
 10 11  2  0
 11 12  1  0
 12 13  2  0
 13 14  1  0
 14 15  2  0
  8 16  1  0
 16 17  1  0
 17 18  2  0
 17 19  1  0
 19 20  1  0
 20 21  1  0
 21 22  1  0
 22 23  1  0
 23 24  1  0
  7 25  1  0
  5 26  1  0
 26 27  2  0
 26 28  2  0
 26 29  1  0
 29 30  2  0
 30 31  1  0
 31 32  2  0
 32 33  1  0
 33 34  2  0
 32 35  1  0
 15 10  1  0
 24 20  1  0
 34 29  1  0
  1 36  1  0
  1 37  1  0
  1 38  1  0
  2 39  1  0
  3 40  1  0
  3 41  1  0
  3 42  1  0
  4 43  1  0
  4 44  1  0
  6 45  1  0
  6 46  1  0
  7 47  1  1
  8 48  1  6
  9 49  1  0
  9 50  1  0
 11 51  1  0
 12 52  1  0
 13 53  1  0
 14 54  1  0
 15 55  1  0
 16 56  1  0
 20 57  1  6
 21 58  1  0
 21 59  1  0
 22 60  1  0
 22 61  1  0
 24 62  1  0
 24 63  1  0
 25 64  1  0
 30 65  1  0
 31 66  1  0
 33 67  1  0
 34 68  1  0
 35 69  1  0
 35 70  1  0
M  END
$$$$

     RDKit          3D

103105  0  0  0  0  0  0  0  0999 V2000
    4.1874    0.4524   -3.3774 C   0  0  0  0  0  0  0  0  0  0  0  0
    5.2648    0.7541   -2.3085 C   0  0  0  0  0  0  0  0  0  0  0  0
    5.8045    2.1776   -2.5743 C   0  0  0  0  0  0  0  0  0  0  0  0
    6.4413   -0.2362   -2.4784 C   0  0  0  0  0  0  0  0  0  0  0  0
    4.6317    0.7193   -0.8686 C   0  0  1  0  0  0  0  0  0  0  0  0
    3.8228   -0.5126   -0.5120 C   0  0  0  0  0  0  0  0  0  0  0  0
    4.0839   -1.6328   -1.0261 O   0  0  0  0  0  0  0  0  0  0  0  0
    2.7735   -0.4035    0.4610 N   0  0  0  0  0  0  0  0  0  0  0  0
    2.2961   -1.5664    1.2217 C   0  0  1  0  0  0  0  0  0  0  0  0
    1.9217   -1.1530    2.6678 C   0  0  0  0  0  0  0  0  0  0  0  0
    3.0617   -0.4405    3.3538 C   0  0  0  0  0  0  0  0  0  0  0  0
    4.2158   -1.1436    3.7355 C   0  0  0  0  0  0  0  0  0  0  0  0
    5.2773   -0.4761    4.3533 C   0  0  0  0  0  0  0  0  0  0  0  0
    5.2056    0.9040    4.5693 C   0  0  0  0  0  0  0  0  0  0  0  0
    4.0611    1.6093    4.1920 C   0  0  0  0  0  0  0  0  0  0  0  0
    2.9881    0.9403    3.5959 C   0  0  0  0  0  0  0  0  0  0  0  0
    1.1832   -2.3784    0.4541 C   0  0  2  0  0  0  0  0  0  0  0  0
    0.6027   -1.7890   -0.8780 C   0  0  0  0  0  0  0  0  0  0  0  0
   -0.5335   -0.8424   -0.7985 N   0  0  0  0  0  0  0  0  0  0  0  0
   -0.1988    0.4626   -0.2077 C   0  0  0  0  0  0  0  0  0  0  0  0
   -1.3715    1.4045   -0.3202 C   0  0  0  0  0  0  0  0  0  0  0  0
   -2.0154    1.8808    0.8326 C   0  0  0  0  0  0  0  0  0  0  0  0
   -3.1461    2.6960    0.7267 C   0  0  0  0  0  0  0  0  0  0  0  0
   -3.6449    3.0692   -0.5357 C   0  0  0  0  0  0  0  0  0  0  0  0
   -2.9935    2.5900   -1.6903 C   0  0  0  0  0  0  0  0  0  0  0  0
   -1.8681    1.7658   -1.5805 C   0  0  0  0  0  0  0  0  0  0  0  0
   -4.8564    3.9259   -0.6241 C   0  0  0  0  0  0  0  0  0  0  0  0
   -5.0616    4.8100   -1.6942 C   0  0  0  0  0  0  0  0  0  0  0  0
   -6.2052    5.6111   -1.7174 C   0  0  0  0  0  0  0  0  0  0  0  0
   -7.1360    5.5259   -0.6829 C   0  0  0  0  0  0  0  0  0  0  0  0
   -6.9055    4.6416    0.3683 C   0  0  0  0  0  0  0  0  0  0  0  0
   -5.7822    3.8754    0.3753 N   0  0  0  0  0  0  0  0  0  0  0  0
   -1.6587   -1.4185   -0.1690 N   0  0  0  0  0  0  0  0  0  0  0  0
   -2.6349   -2.1121   -0.9503 C   0  0  0  0  0  0  0  0  0  0  0  0
   -2.2784   -2.7286   -1.9905 O   0  0  0  0  0  0  0  0  0  0  0  0
   -4.0938   -2.0889   -0.5489 C   0  0  2  0  0  0  0  0  0  0  0  0
   -4.4984   -3.2611    0.4133 C   0  0  0  0  0  0  0  0  0  0  0  0
   -4.1742   -4.6506   -0.1888 C   0  0  0  0  0  0  0  0  0  0  0  0
   -3.7519   -3.1200    1.7583 C   0  0  0  0  0  0  0  0  0  0  0  0
   -6.0129   -3.1854    0.6972 C   0  0  0  0  0  0  0  0  0  0  0  0
   -4.9292   -2.0782   -1.7622 N   0  0  0  0  0  0  0  0  0  0  0  0
   -5.7087   -0.9502   -2.1779 C   0  0  0  0  0  0  0  0  0  0  0  0
   -5.8302    0.0629   -1.4330 O   0  0  0  0  0  0  0  0  0  0  0  0
   -6.3358   -0.9829   -3.4274 O   0  0  0  0  0  0  0  0  0  0  0  0
   -7.1416    0.0918   -3.9099 C   0  0  0  0  0  0  0  0  0  0  0  0
    0.1856   -2.9088    1.2947 O   0  0  0  0  0  0  0  0  0  0  0  0
    5.6183    1.0169    0.1818 N   0  0  0  0  0  0  0  0  0  0  0  0
    6.4954    0.0631    0.8041 C   0  0  0  0  0  0  0  0  0  0  0  0
    6.4299   -1.1623    0.5100 O   0  0  0  0  0  0  0  0  0  0  0  0
    7.4358    0.5110    1.7346 O   0  0  0  0  0  0  0  0  0  0  0  0
    8.3697   -0.3606    2.3639 C   0  0  0  0  0  0  0  0  0  0  0  0
    4.5933    0.6165   -4.3985 H   0  0  0  0  0  0  0  0  0  0  0  0
    3.3055    1.1162   -3.2448 H   0  0  0  0  0  0  0  0  0  0  0  0
    3.8417   -0.6012   -3.3236 H   0  0  0  0  0  0  0  0  0  0  0  0
    6.6021    2.4433   -1.8482 H   0  0  0  0  0  0  0  0  0  0  0  0
    6.2364    2.2563   -3.5954 H   0  0  0  0  0  0  0  0  0  0  0  0
    4.9905    2.9291   -2.4861 H   0  0  0  0  0  0  0  0  0  0  0  0
    6.8432   -0.1696   -3.5138 H   0  0  0  0  0  0  0  0  0  0  0  0
    6.1288   -1.2873   -2.3106 H   0  0  0  0  0  0  0  0  0  0  0  0
    7.2768    0.0078   -1.7873 H   0  0  0  0  0  0  0  0  0  0  0  0
    3.8957    1.5546   -0.8568 H   0  0  0  0  0  0  0  0  0  0  0  0
    2.5207    0.5590    0.7881 H   0  0  0  0  0  0  0  0  0  0  0  0
    3.1618   -2.2578    1.3507 H   0  0  0  0  0  0  0  0  0  0  0  0
    1.0307   -0.4996    2.6600 H   0  0  0  0  0  0  0  0  0  0  0  0
    1.6569   -2.0485    3.2682 H   0  0  0  0  0  0  0  0  0  0  0  0
    4.2920   -2.2090    3.5581 H   0  0  0  0  0  0  0  0  0  0  0  0
    6.1621   -1.0308    4.6549 H   0  0  0  0  0  0  0  0  0  0  0  0
    6.0327    1.4221    5.0350 H   0  0  0  0  0  0  0  0  0  0  0  0
    4.0045    2.6753    4.3554 H   0  0  0  0  0  0  0  0  0  0  0  0
    2.1072    1.4997    3.3026 H   0  0  0  0  0  0  0  0  0  0  0  0
    1.7344   -3.2747    0.0911 H   0  0  0  0  0  0  0  0  0  0  0  0
    0.2720   -2.6507   -1.4951 H   0  0  0  0  0  0  0  0  0  0  0  0
    1.4100   -1.3316   -1.4840 H   0  0  0  0  0  0  0  0  0  0  0  0
    0.6555    0.9141   -0.7561 H   0  0  0  0  0  0  0  0  0  0  0  0
    0.0847    0.3378    0.8536 H   0  0  0  0  0  0  0  0  0  0  0  0
   -1.6478    1.6132    1.8140 H   0  0  0  0  0  0  0  0  0  0  0  0
   -3.6296    3.0372    1.6346 H   0  0  0  0  0  0  0  0  0  0  0  0
   -3.3594    2.8310   -2.6812 H   0  0  0  0  0  0  0  0  0  0  0  0
   -1.3950    1.3864   -2.4781 H   0  0  0  0  0  0  0  0  0  0  0  0
   -4.3394    4.9066   -2.4885 H   0  0  0  0  0  0  0  0  0  0  0  0
   -6.3669    6.2981   -2.5348 H   0  0  0  0  0  0  0  0  0  0  0  0
   -8.0198    6.1470   -0.6884 H   0  0  0  0  0  0  0  0  0  0  0  0
   -7.6155    4.5701    1.1782 H   0  0  0  0  0  0  0  0  0  0  0  0
   -1.9569   -1.0778    0.7728 H   0  0  0  0  0  0  0  0  0  0  0  0
   -4.2544   -1.1344    0.0022 H   0  0  0  0  0  0  0  0  0  0  0  0
   -4.7222   -4.8214   -1.1389 H   0  0  0  0  0  0  0  0  0  0  0  0
   -3.0847   -4.7575   -0.3840 H   0  0  0  0  0  0  0  0  0  0  0  0
   -4.4735   -5.4544    0.5155 H   0  0  0  0  0  0  0  0  0  0  0  0
   -2.6591   -3.2689    1.6261 H   0  0  0  0  0  0  0  0  0  0  0  0
   -3.9289   -2.1162    2.2018 H   0  0  0  0  0  0  0  0  0  0  0  0
   -4.1035   -3.8856    2.4812 H   0  0  0  0  0  0  0  0  0  0  0  0
   -6.2916   -2.1753    1.0723 H   0  0  0  0  0  0  0  0  0  0  0  0
   -6.5999   -3.3945   -0.2215 H   0  0  0  0  0  0  0  0  0  0  0  0
   -6.3035   -3.9367    1.4608 H   0  0  0  0  0  0  0  0  0  0  0  0
   -4.9043   -2.9043   -2.4041 H   0  0  0  0  0  0  0  0  0  0  0  0
   -7.4706   -0.1419   -4.9407 H   0  0  0  0  0  0  0  0  0  0  0  0
   -6.5507    1.0341   -3.9276 H   0  0  0  0  0  0  0  0  0  0  0  0
   -8.0376    0.2175   -3.2630 H   0  0  0  0  0  0  0  0  0  0  0  0
   -0.2496   -2.1565    1.7650 H   0  0  0  0  0  0  0  0  0  0  0  0
    5.6757    1.9982    0.5285 H   0  0  0  0  0  0  0  0  0  0  0  0
    9.0231   -0.8384    1.6012 H   0  0  0  0  0  0  0  0  0  0  0  0
    7.8349   -1.1525    2.9295 H   0  0  0  0  0  0  0  0  0  0  0  0
    9.0010    0.2276    3.0647 H   0  0  0  0  0  0  0  0  0  0  0  0
  1  2  1  0
  2  3  1  0
  2  4  1  0
  2  5  1  0
  5  6  1  0
  6  7  2  0
  6  8  1  0
  8  9  1  0
  9 10  1  0
 10 11  1  0
 11 12  2  0
 12 13  1  0
 13 14  2  0
 14 15  1  0
 15 16  2  0
  9 17  1  0
 17 18  1  0
 18 19  1  0
 19 20  1  0
 20 21  1  0
 21 22  2  0
 22 23  1  0
 23 24  2  0
 24 25  1  0
 25 26  2  0
 24 27  1  0
 27 28  2  0
 28 29  1  0
 29 30  2  0
 30 31  1  0
 31 32  2  0
 19 33  1  0
 33 34  1  0
 34 35  2  0
 34 36  1  0
 36 37  1  0
 37 38  1  0
 37 39  1  0
 37 40  1  0
 36 41  1  0
 41 42  1  0
 42 43  2  0
 42 44  1  0
 44 45  1  0
 17 46  1  0
  5 47  1  0
 47 48  1  0
 48 49  2  0
 48 50  1  0
 50 51  1  0
 16 11  1  0
 26 21  1  0
 32 27  1  0
  1 52  1  0
  1 53  1  0
  1 54  1  0
  3 55  1  0
  3 56  1  0
  3 57  1  0
  4 58  1  0
  4 59  1  0
  4 60  1  0
  5 61  1  6
  8 62  1  0
  9 63  1  1
 10 64  1  0
 10 65  1  0
 12 66  1  0
 13 67  1  0
 14 68  1  0
 15 69  1  0
 16 70  1  0
 17 71  1  6
 18 72  1  0
 18 73  1  0
 20 74  1  0
 20 75  1  0
 22 76  1  0
 23 77  1  0
 25 78  1  0
 26 79  1  0
 28 80  1  0
 29 81  1  0
 30 82  1  0
 31 83  1  0
 33 84  1  0
 36 85  1  1
 38 86  1  0
 38 87  1  0
 38 88  1  0
 39 89  1  0
 39 90  1  0
 39 91  1  0
 40 92  1  0
 40 93  1  0
 40 94  1  0
 41 95  1  0
 45 96  1  0
 45 97  1  0
 45 98  1  0
 46 99  1  0
 47100  1  0
 51101  1  0
 51102  1  0
 51103  1  0
M  END
$$$$

     RDKit          3D

 98101  0  0  0  0  0  0  0  0999 V2000
   11.3625    2.4843   -1.0427 C   0  0  0  0  0  0  0  0  0  0  0  0
   10.1951    2.4900   -0.0552 C   0  0  0  0  0  0  0  0  0  0  0  0
    9.7038    3.9107    0.2145 C   0  0  0  0  0  0  0  0  0  0  0  0
    9.0868    1.6146   -0.5639 C   0  0  0  0  0  0  0  0  0  0  0  0
    8.0490    2.0561   -1.3220 N   0  0  0  0  0  0  0  0  0  0  0  0
    7.1957    1.0414   -1.6351 C   0  0  0  0  0  0  0  0  0  0  0  0
    7.5426   -0.2068   -1.1195 C   0  0  0  0  0  0  0  0  0  0  0  0
    8.9574   -0.0315   -0.2362 S   0  0  0  0  0  0  0  0  0  0  0  0
    5.9433    1.2838   -2.4190 C   0  0  0  0  0  0  0  0  0  0  0  0
    4.7656    1.1309   -1.5521 N   0  0  0  0  0  0  0  0  0  0  0  0
    4.4991    2.1460   -0.5336 C   0  0  0  0  0  0  0  0  0  0  0  0
    3.9129   -0.0296   -1.6723 C   0  0  0  0  0  0  0  0  0  0  0  0
    4.1086   -0.8605   -2.6014 O   0  0  0  0  0  0  0  0  0  0  0  0
    2.8631   -0.2822   -0.7252 N   0  0  0  0  0  0  0  0  0  0  0  0
    2.3048   -1.6261   -0.5153 C   0  0  1  0  0  0  0  0  0  0  0  0
    2.9856   -2.3159    0.7144 C   0  0  0  0  0  0  0  0  0  0  0  0
    4.5222   -2.2501    0.6063 C   0  0  0  0  0  0  0  0  0  0  0  0
    2.5657   -3.7956    0.8278 C   0  0  0  0  0  0  0  0  0  0  0  0
    0.7978   -1.5085   -0.4417 C   0  0  0  0  0  0  0  0  0  0  0  0
    0.1872   -1.1979   -1.5057 O   0  0  0  0  0  0  0  0  0  0  0  0
    0.0505   -1.6787    0.7843 N   0  0  0  0  0  0  0  0  0  0  0  0
   -1.4030   -1.4734    0.8609 C   0  0  1  0  0  0  0  0  0  0  0  0
   -2.0712   -2.7317    1.4595 C   0  0  0  0  0  0  0  0  0  0  0  0
   -1.7525   -3.9828    0.6767 C   0  0  0  0  0  0  0  0  0  0  0  0
   -2.2518   -4.1471   -0.6254 C   0  0  0  0  0  0  0  0  0  0  0  0
   -1.9950   -5.3245   -1.3444 C   0  0  0  0  0  0  0  0  0  0  0  0
   -1.2740   -6.3567   -0.7455 C   0  0  0  0  0  0  0  0  0  0  0  0
   -0.7838   -6.2096    0.5616 C   0  0  0  0  0  0  0  0  0  0  0  0
   -1.0211   -5.0259    1.2713 C   0  0  0  0  0  0  0  0  0  0  0  0
   -1.6497   -0.1974    1.7063 C   0  0  0  0  0  0  0  0  0  0  0  0
   -3.1109    0.1420    2.0924 C   0  0  1  0  0  0  0  0  0  0  0  0
   -4.0921    0.2357    0.8941 C   0  0  2  0  0  0  0  0  0  0  0  0
   -3.7899    1.4484   -0.0211 C   0  0  0  0  0  0  0  0  0  0  0  0
   -4.6578    1.4413   -1.2538 C   0  0  0  0  0  0  0  0  0  0  0  0
   -4.4548    0.4471   -2.2219 C   0  0  0  0  0  0  0  0  0  0  0  0
   -5.2158    0.4510   -3.3887 C   0  0  0  0  0  0  0  0  0  0  0  0
   -6.1866    1.4372   -3.5951 C   0  0  0  0  0  0  0  0  0  0  0  0
   -6.4051    2.4262   -2.6221 C   0  0  0  0  0  0  0  0  0  0  0  0
   -5.6358    2.4322   -1.4573 C   0  0  0  0  0  0  0  0  0  0  0  0
   -5.4968    0.2985    1.3547 N   0  0  0  0  0  0  0  0  0  0  0  0
   -6.0017    1.2702    2.2735 C   0  0  0  0  0  0  0  0  0  0  0  0
   -5.5176    1.3458    3.4335 O   0  0  0  0  0  0  0  0  0  0  0  0
   -7.0669    2.0972    1.8846 O   0  0  0  0  0  0  0  0  0  0  0  0
   -7.8904    2.7484    2.8438 C   0  0  0  0  0  0  0  0  0  0  0  0
   -9.0037    3.4847    2.1735 C   0  0  0  0  0  0  0  0  0  0  0  0
   -9.5599    3.1725    0.9463 C   0  0  0  0  0  0  0  0  0  0  0  0
  -10.7212    3.8091    0.6559 N   0  0  0  0  0  0  0  0  0  0  0  0
  -11.1021    4.6311    1.6479 C   0  0  0  0  0  0  0  0  0  0  0  0
  -10.0247    4.5714    2.9273 S   0  0  0  0  0  0  0  0  0  0  0  0
   -3.5855   -0.7947    3.0351 O   0  0  0  0  0  0  0  0  0  0  0  0
   12.1955    3.1132   -0.6523 H   0  0  0  0  0  0  0  0  0  0  0  0
   11.0348    2.8586   -2.0405 H   0  0  0  0  0  0  0  0  0  0  0  0
   11.7493    1.4460   -1.1607 H   0  0  0  0  0  0  0  0  0  0  0  0
   10.5532    2.0750    0.9138 H   0  0  0  0  0  0  0  0  0  0  0  0
    8.8571    3.9037    0.9515 H   0  0  0  0  0  0  0  0  0  0  0  0
    9.3659    4.4122   -0.7287 H   0  0  0  0  0  0  0  0  0  0  0  0
   10.5309    4.5203    0.6450 H   0  0  0  0  0  0  0  0  0  0  0  0
    6.9742   -1.1254   -1.2190 H   0  0  0  0  0  0  0  0  0  0  0  0
    5.9602    2.3065   -2.8495 H   0  0  0  0  0  0  0  0  0  0  0  0
    5.9220    0.5797   -3.2750 H   0  0  0  0  0  0  0  0  0  0  0  0
    5.2696    2.9549   -0.5543 H   0  0  0  0  0  0  0  0  0  0  0  0
    4.5162    1.6814    0.4712 H   0  0  0  0  0  0  0  0  0  0  0  0
    3.5080    2.6162   -0.7063 H   0  0  0  0  0  0  0  0  0  0  0  0
    2.5992    0.4618   -0.0369 H   0  0  0  0  0  0  0  0  0  0  0  0
    2.5201   -2.2687   -1.4008 H   0  0  0  0  0  0  0  0  0  0  0  0
    2.7131   -1.7784    1.6526 H   0  0  0  0  0  0  0  0  0  0  0  0
    4.8696   -1.1951    0.6443 H   0  0  0  0  0  0  0  0  0  0  0  0
    5.0004   -2.7796    1.4562 H   0  0  0  0  0  0  0  0  0  0  0  0
    4.8587   -2.7188   -0.3469 H   0  0  0  0  0  0  0  0  0  0  0  0
    3.0073   -4.2491    1.7335 H   0  0  0  0  0  0  0  0  0  0  0  0
    2.9217   -4.3678   -0.0469 H   0  0  0  0  0  0  0  0  0  0  0  0
    1.4696   -3.9145    0.9036 H   0  0  0  0  0  0  0  0  0  0  0  0
    0.5298   -1.8911    1.6763 H   0  0  0  0  0  0  0  0  0  0  0  0
   -1.8219   -1.3216   -0.1561 H   0  0  0  0  0  0  0  0  0  0  0  0
   -1.7577   -2.8465    2.5224 H   0  0  0  0  0  0  0  0  0  0  0  0
   -3.1814   -2.6131    1.4601 H   0  0  0  0  0  0  0  0  0  0  0  0
   -2.8408   -3.3697   -1.0969 H   0  0  0  0  0  0  0  0  0  0  0  0
   -2.3770   -5.4487   -2.3577 H   0  0  0  0  0  0  0  0  0  0  0  0
   -1.0907   -7.2818   -1.2785 H   0  0  0  0  0  0  0  0  0  0  0  0
   -0.2184   -7.0075    1.0203 H   0  0  0  0  0  0  0  0  0  0  0  0
   -0.6406   -4.9233    2.2914 H   0  0  0  0  0  0  0  0  0  0  0  0
   -1.2037    0.6638    1.1642 H   0  0  0  0  0  0  0  0  0  0  0  0
   -1.0701   -0.2753    2.6474 H   0  0  0  0  0  0  0  0  0  0  0  0
   -3.0758    1.1498    2.5626 H   0  0  0  0  0  0  0  0  0  0  0  0
   -3.9937   -0.6882    0.2978 H   0  0  0  0  0  0  0  0  0  0  0  0
   -3.9351    2.3793    0.5616 H   0  0  0  0  0  0  0  0  0  0  0  0
   -2.7380    1.4347   -0.3550 H   0  0  0  0  0  0  0  0  0  0  0  0
   -3.7131   -0.3309   -2.0779 H   0  0  0  0  0  0  0  0  0  0  0  0
   -5.0582   -0.3205   -4.1227 H   0  0  0  0  0  0  0  0  0  0  0  0
   -6.7757    1.4289   -4.5026 H   0  0  0  0  0  0  0  0  0  0  0  0
   -7.1584    3.1920   -2.7801 H   0  0  0  0  0  0  0  0  0  0  0  0
   -5.7964    3.2094   -0.7163 H   0  0  0  0  0  0  0  0  0  0  0  0
   -6.1755   -0.3858    0.9415 H   0  0  0  0  0  0  0  0  0  0  0  0
   -7.2813    3.4478    3.4679 H   0  0  0  0  0  0  0  0  0  0  0  0
   -8.3452    1.9683    3.5213 H   0  0  0  0  0  0  0  0  0  0  0  0
   -9.1396    2.4315    0.2732 H   0  0  0  0  0  0  0  0  0  0  0  0
  -11.9883    5.2528    1.5962 H   0  0  0  0  0  0  0  0  0  0  0  0
   -3.4267   -0.4067    3.9312 H   0  0  0  0  0  0  0  0  0  0  0  0
  1  2  1  0
  2  3  1  0
  2  4  1  0
  4  5  2  0
  5  6  1  0
  6  7  2  0
  7  8  1  0
  6  9  1  0
  9 10  1  0
 10 11  1  0
 10 12  1  0
 12 13  2  0
 12 14  1  0
 14 15  1  0
 15 16  1  0
 16 17  1  0
 16 18  1  0
 15 19  1  0
 19 20  2  0
 19 21  1  0
 21 22  1  0
 22 23  1  0
 23 24  1  0
 24 25  2  0
 25 26  1  0
 26 27  2  0
 27 28  1  0
 28 29  2  0
 22 30  1  0
 30 31  1  0
 31 32  1  0
 32 33  1  0
 33 34  1  0
 34 35  2  0
 35 36  1  0
 36 37  2  0
 37 38  1  0
 38 39  2  0
 32 40  1  0
 40 41  1  0
 41 42  2  0
 41 43  1  0
 43 44  1  0
 44 45  1  0
 45 46  2  0
 46 47  1  0
 47 48  2  0
 48 49  1  0
 31 50  1  0
  8  4  1  0
 29 24  1  0
 39 34  1  0
 49 45  1  0
  1 51  1  0
  1 52  1  0
  1 53  1  0
  2 54  1  0
  3 55  1  0
  3 56  1  0
  3 57  1  0
  7 58  1  0
  9 59  1  0
  9 60  1  0
 11 61  1  0
 11 62  1  0
 11 63  1  0
 14 64  1  0
 15 65  1  6
 16 66  1  0
 17 67  1  0
 17 68  1  0
 17 69  1  0
 18 70  1  0
 18 71  1  0
 18 72  1  0
 21 73  1  0
 22 74  1  6
 23 75  1  0
 23 76  1  0
 25 77  1  0
 26 78  1  0
 27 79  1  0
 28 80  1  0
 29 81  1  0
 30 82  1  0
 30 83  1  0
 31 84  1  1
 32 85  1  6
 33 86  1  0
 33 87  1  0
 35 88  1  0
 36 89  1  0
 37 90  1  0
 38 91  1  0
 39 92  1  0
 40 93  1  0
 44 94  1  0
 44 95  1  0
 46 96  1  0
 48 97  1  0
 50 98  1  0
M  END
$$$$
