
     RDKit          3D

 99103  0  0  0  0  0  0  0  0999 V2000
   -5.1453   -2.7122   -1.7832 C   0  0  0  0  0  0  0  0  0  0  0  0
   -3.9589   -2.8782   -0.8093 C   0  0  0  0  0  0  0  0  0  0  0  0
   -4.1939   -4.1497    0.0299 C   0  0  0  0  0  0  0  0  0  0  0  0
   -2.6642   -3.0180   -1.6340 C   0  0  0  0  0  0  0  0  0  0  0  0
   -3.8830   -1.6880    0.0633 N   0  0  0  0  0  0  0  0  0  0  0  0
   -2.9169   -1.4903    1.1189 C   0  0  0  0  0  0  0  0  0  0  0  0
   -2.0892   -2.3955    1.4138 O   0  0  0  0  0  0  0  0  0  0  0  0
   -2.8582   -0.1773    1.8615 C   0  0  2  0  0  0  0  0  0  0  0  0
   -4.1278    0.0111    2.7193 C   0  0  0  0  0  0  0  0  0  0  0  0
   -4.1337    1.3620    3.4953 C   0  0  2  0  0  0  0  0  0  0  0  0
   -5.5782    1.9176    3.5478 C   0  0  0  0  0  0  0  0  0  0  0  0
   -5.6435    3.3164    4.1573 C   0  0  0  0  0  0  0  0  0  0  0  0
   -4.7660    4.2793    3.3610 C   0  0  0  0  0  0  0  0  0  0  0  0
   -3.3095    3.8186    3.3938 C   0  0  0  0  0  0  0  0  0  0  0  0
   -3.1230    2.3743    2.8814 C   0  0  2  0  0  0  0  0  0  0  0  0
   -3.1493    2.2633    1.3472 C   0  0  0  0  0  0  0  0  0  0  0  0
   -2.6712    0.9318    0.8847 N   0  0  0  0  0  0  0  0  0  0  0  0
   -1.2832    0.9754    0.3601 C   0  0  0  0  0  0  0  0  0  0  0  0
   -1.3068    1.0528   -1.1768 C   0  0  2  0  0  0  0  0  0  0  0  0
    0.1147    0.8739   -1.7691 C   0  0  2  0  0  0  0  0  0  0  0  0
    0.1339    1.0751   -3.3035 C   0  0  0  0  0  0  0  0  0  0  0  0
   -0.6906    0.0463   -4.0400 C   0  0  0  0  0  0  0  0  0  0  0  0
   -2.0083    0.3373   -4.4321 C   0  0  0  0  0  0  0  0  0  0  0  0
   -2.7788   -0.6253   -5.0885 C   0  0  0  0  0  0  0  0  0  0  0  0
   -2.2400   -1.8860   -5.3532 C   0  0  0  0  0  0  0  0  0  0  0  0
   -0.9246   -2.1774   -4.9847 C   0  0  0  0  0  0  0  0  0  0  0  0
   -0.1493   -1.2135   -4.3374 C   0  0  0  0  0  0  0  0  0  0  0  0
    0.6475   -0.4580   -1.4335 N   0  0  0  0  0  0  0  0  0  0  0  0
    2.0324   -0.8049   -1.2382 C   0  0  0  0  0  0  0  0  0  0  0  0
    2.3065   -2.0035   -0.9495 O   0  0  0  0  0  0  0  0  0  0  0  0
    3.1791    0.1792   -1.4030 C   0  0  2  0  0  0  0  0  0  0  0  0
    3.9677   -0.0855   -2.7021 C   0  0  0  0  0  0  0  0  0  0  0  0
    4.6635   -1.4184   -2.7198 C   0  0  0  0  0  0  0  0  0  0  0  0
    5.6501   -1.6214   -1.9626 O   0  0  0  0  0  0  0  0  0  0  0  0
    4.2361   -2.4467   -3.6152 N   0  0  0  0  0  0  0  0  0  0  0  0
    4.0718    0.1200   -0.2374 N   0  0  0  0  0  0  0  0  0  0  0  0
    4.8730    1.2421    0.1710 C   0  0  0  0  0  0  0  0  0  0  0  0
    4.5919    2.4011   -0.2449 O   0  0  0  0  0  0  0  0  0  0  0  0
    6.0441    1.0461    1.0550 C   0  0  0  0  0  0  0  0  0  0  0  0
    6.4442   -0.2168    1.3771 N   0  0  0  0  0  0  0  0  0  0  0  0
    7.5320   -0.4567    2.1587 C   0  0  0  0  0  0  0  0  0  0  0  0
    7.9061   -1.7718    2.4623 C   0  0  0  0  0  0  0  0  0  0  0  0
    9.0325   -2.0132    3.2561 C   0  0  0  0  0  0  0  0  0  0  0  0
    9.7831   -0.9436    3.7555 C   0  0  0  0  0  0  0  0  0  0  0  0
    9.4148    0.3737    3.4636 C   0  0  0  0  0  0  0  0  0  0  0  0
    8.2879    0.6247    2.6652 C   0  0  0  0  0  0  0  0  0  0  0  0
    7.8928    1.9307    2.3521 C   0  0  0  0  0  0  0  0  0  0  0  0
    6.7713    2.1453    1.5468 C   0  0  0  0  0  0  0  0  0  0  0  0
   -1.8262    2.3008   -1.5692 O   0  0  0  0  0  0  0  0  0  0  0  0
   -6.0970   -2.6124   -1.2185 H   0  0  0  0  0  0  0  0  0  0  0  0
   -5.0112   -1.8009   -2.4026 H   0  0  0  0  0  0  0  0  0  0  0  0
   -5.2319   -3.5846   -2.4655 H   0  0  0  0  0  0  0  0  0  0  0  0
   -4.3924   -5.0248   -0.6284 H   0  0  0  0  0  0  0  0  0  0  0  0
   -5.0618   -4.0125    0.7096 H   0  0  0  0  0  0  0  0  0  0  0  0
   -3.3069   -4.3989    0.6407 H   0  0  0  0  0  0  0  0  0  0  0  0
   -2.7494   -3.8732   -2.3383 H   0  0  0  0  0  0  0  0  0  0  0  0
   -2.4802   -2.0927   -2.2236 H   0  0  0  0  0  0  0  0  0  0  0  0
   -1.7837   -3.2023   -0.9850 H   0  0  0  0  0  0  0  0  0  0  0  0
   -4.5486   -0.9037   -0.1133 H   0  0  0  0  0  0  0  0  0  0  0  0
   -1.9972   -0.2078    2.5691 H   0  0  0  0  0  0  0  0  0  0  0  0
   -4.2121   -0.8237    3.4463 H   0  0  0  0  0  0  0  0  0  0  0  0
   -5.0125   -0.0544    2.0476 H   0  0  0  0  0  0  0  0  0  0  0  0
   -3.8081    1.1661    4.5414 H   0  0  0  0  0  0  0  0  0  0  0  0
   -6.2152    1.2327    4.1486 H   0  0  0  0  0  0  0  0  0  0  0  0
   -6.0107    1.9629    2.5246 H   0  0  0  0  0  0  0  0  0  0  0  0
   -6.6932    3.6768    4.1312 H   0  0  0  0  0  0  0  0  0  0  0  0
   -5.3185    3.2869    5.2187 H   0  0  0  0  0  0  0  0  0  0  0  0
   -4.8370    5.2921    3.8085 H   0  0  0  0  0  0  0  0  0  0  0  0
   -5.1246    4.3448    2.3093 H   0  0  0  0  0  0  0  0  0  0  0  0
   -2.9478    3.8737    4.4446 H   0  0  0  0  0  0  0  0  0  0  0  0
   -2.6898    4.5205    2.7923 H   0  0  0  0  0  0  0  0  0  0  0  0
   -2.0983    2.0761    3.2049 H   0  0  0  0  0  0  0  0  0  0  0  0
   -2.5611    3.0916    0.8965 H   0  0  0  0  0  0  0  0  0  0  0  0
   -4.1876    2.4092    0.9782 H   0  0  0  0  0  0  0  0  0  0  0  0
   -0.7048    1.8299    0.7777 H   0  0  0  0  0  0  0  0  0  0  0  0
   -0.7168    0.0668    0.6555 H   0  0  0  0  0  0  0  0  0  0  0  0
   -1.9554    0.2271   -1.5575 H   0  0  0  0  0  0  0  0  0  0  0  0
    0.7351    1.6666   -1.3066 H   0  0  0  0  0  0  0  0  0  0  0  0
   -0.2159    2.1011   -3.5563 H   0  0  0  0  0  0  0  0  0  0  0  0
    1.1827    1.0276   -3.6661 H   0  0  0  0  0  0  0  0  0  0  0  0
   -2.4411    1.3044   -4.2207 H   0  0  0  0  0  0  0  0  0  0  0  0
   -3.8016   -0.4015   -5.3663 H   0  0  0  0  0  0  0  0  0  0  0  0
   -2.8426   -2.6382   -5.8389 H   0  0  0  0  0  0  0  0  0  0  0  0
   -0.5044   -3.1501   -5.1993 H   0  0  0  0  0  0  0  0  0  0  0  0
    0.8641   -1.4573   -4.0473 H   0  0  0  0  0  0  0  0  0  0  0  0
   -0.0265   -1.2548   -1.4394 H   0  0  0  0  0  0  0  0  0  0  0  0
    2.7912    1.2072   -1.4846 H   0  0  0  0  0  0  0  0  0  0  0  0
    3.2792   -0.0108   -3.5695 H   0  0  0  0  0  0  0  0  0  0  0  0
    4.7321    0.7094   -2.8348 H   0  0  0  0  0  0  0  0  0  0  0  0
    3.4238   -2.2970   -4.2594 H   0  0  0  0  0  0  0  0  0  0  0  0
    4.7225   -3.3694   -3.6262 H   0  0  0  0  0  0  0  0  0  0  0  0
    4.2561   -0.8112    0.2041 H   0  0  0  0  0  0  0  0  0  0  0  0
    7.3325   -2.6067    2.0789 H   0  0  0  0  0  0  0  0  0  0  0  0
    9.3272   -3.0307    3.4826 H   0  0  0  0  0  0  0  0  0  0  0  0
   10.6492   -1.1377    4.3730 H   0  0  0  0  0  0  0  0  0  0  0  0
   10.0111    1.1907    3.8537 H   0  0  0  0  0  0  0  0  0  0  0  0
    8.4556    2.7819    2.7185 H   0  0  0  0  0  0  0  0  0  0  0  0
    6.4796    3.1617    1.3092 H   0  0  0  0  0  0  0  0  0  0  0  0
   -2.8134    2.2026   -1.6287 H   0  0  0  0  0  0  0  0  0  0  0  0
  1  2  1  0
  2  3  1  0
  2  4  1  0
  2  5  1  0
  5  6  1  0
  6  7  2  0
  6  8  1  0
  8  9  1  0
  9 10  1  0
 10 11  1  0
 11 12  1  0
 12 13  1  0
 13 14  1  0
 14 15  1  0
 15 16  1  0
 16 17  1  0
 17 18  1  0
 18 19  1  0
 19 20  1  0
 20 21  1  0
 21 22  1  0
 22 23  2  0
 23 24  1  0
 24 25  2  0
 25 26  1  0
 26 27  2  0
 20 28  1  0
 28 29  1  0
 29 30  2  0
 29 31  1  0
 31 32  1  0
 32 33  1  0
 33 34  2  0
 33 35  1  0
 31 36  1  0
 36 37  1  0
 37 38  2  0
 37 39  1  0
 39 40  2  0
 40 41  1  0
 41 42  2  0
 42 43  1  0
 43 44  2  0
 44 45  1  0
 45 46  2  0
 46 47  1  0
 47 48  2  0
 19 49  1  0
 17  8  1  0
 15 10  1  0
 27 22  1  0
 48 39  1  0
 46 41  1  0
  1 50  1  0
  1 51  1  0
  1 52  1  0
  3 53  1  0
  3 54  1  0
  3 55  1  0
  4 56  1  0
  4 57  1  0
  4 58  1  0
  5 59  1  0
  8 60  1  1
  9 61  1  0
  9 62  1  0
 10 63  1  1
 11 64  1  0
 11 65  1  0
 12 66  1  0
 12 67  1  0
 13 68  1  0
 13 69  1  0
 14 70  1  0
 14 71  1  0
 15 72  1  1
 16 73  1  0
 16 74  1  0
 18 75  1  0
 18 76  1  0
 19 77  1  6
 20 78  1  1
 21 79  1  0
 21 80  1  0
 23 81  1  0
 24 82  1  0
 25 83  1  0
 26 84  1  0
 27 85  1  0
 28 86  1  0
 31 87  1  6
 32 88  1  0
 32 89  1  0
 35 90  1  0
 35 91  1  0
 36 92  1  0
 42 93  1  0
 43 94  1  0
 44 95  1  0
 45 96  1  0
 47 97  1  0
 48 98  1  0
 49 99  1  0
M  END
$$$$

     RDKit          3D

 94 97  0  0  0  0  0  0  0  0999 V2000
    5.5042    2.8379   -3.2419 C   0  0  0  0  0  0  0  0  0  0  0  0
    4.5484    3.0496   -2.0998 C   0  0  0  0  0  0  0  0  0  0  0  0
    4.6767    2.3620   -0.8677 C   0  0  0  0  0  0  0  0  0  0  0  0
    3.8360    2.7085    0.2139 C   0  0  0  0  0  0  0  0  0  0  0  0
    2.8536    3.6941    0.0416 C   0  0  0  0  0  0  0  0  0  0  0  0
    2.6934    4.3260   -1.1898 C   0  0  0  0  0  0  0  0  0  0  0  0
    3.5358    4.0081   -2.2534 C   0  0  0  0  0  0  0  0  0  0  0  0
    3.9650    2.0530    1.5606 C   0  0  0  0  0  0  0  0  0  0  0  0
    5.6387    1.3565   -0.6994 O   0  0  0  0  0  0  0  0  0  0  0  0
    5.5819    0.1035   -1.3822 C   0  0  0  0  0  0  0  0  0  0  0  0
    4.7022   -0.8575   -0.6445 C   0  0  0  0  0  0  0  0  0  0  0  0
    5.2176   -1.8495   -0.0592 O   0  0  0  0  0  0  0  0  0  0  0  0
    3.2796   -0.6598   -0.6251 N   0  0  0  0  0  0  0  0  0  0  0  0
    2.3599   -1.6178    0.0051 C   0  0  1  0  0  0  0  0  0  0  0  0
    2.3702   -1.3773    1.5403 C   0  0  0  0  0  0  0  0  0  0  0  0
    2.1182   -2.6269    2.3522 C   0  0  0  0  0  0  0  0  0  0  0  0
    2.9983   -3.7208    2.2675 C   0  0  0  0  0  0  0  0  0  0  0  0
    2.7809   -4.8649    3.0401 C   0  0  0  0  0  0  0  0  0  0  0  0
    1.6949   -4.9223    3.9167 C   0  0  0  0  0  0  0  0  0  0  0  0
    0.8313   -3.8310    4.0295 C   0  0  0  0  0  0  0  0  0  0  0  0
    1.0452   -2.6840    3.2598 C   0  0  0  0  0  0  0  0  0  0  0  0
    0.9518   -1.4690   -0.6352 C   0  0  2  0  0  0  0  0  0  0  0  0
   -0.0631   -2.5093   -0.1065 C   0  0  0  0  0  0  0  0  0  0  0  0
   -1.4718   -2.4433   -0.7514 C   0  0  2  0  0  0  0  0  0  0  0  0
   -1.5656   -3.2327   -2.0755 C   0  0  0  0  0  0  0  0  0  0  0  0
   -2.9853   -3.2780   -2.5892 C   0  0  0  0  0  0  0  0  0  0  0  0
   -3.3433   -2.5906   -3.7615 C   0  0  0  0  0  0  0  0  0  0  0  0
   -4.6626   -2.6272   -4.2247 C   0  0  0  0  0  0  0  0  0  0  0  0
   -5.6320   -3.3477   -3.5228 C   0  0  0  0  0  0  0  0  0  0  0  0
   -5.2840   -4.0392   -2.3612 C   0  0  0  0  0  0  0  0  0  0  0  0
   -3.9653   -4.0107   -1.8972 C   0  0  0  0  0  0  0  0  0  0  0  0
   -1.8982   -1.0519   -0.9420 N   0  0  0  0  0  0  0  0  0  0  0  0
   -2.4306   -0.2601    0.1308 C   0  0  0  0  0  0  0  0  0  0  0  0
   -2.6945   -0.8038    1.2367 O   0  0  0  0  0  0  0  0  0  0  0  0
   -2.6196    1.2303   -0.0686 C   0  0  2  0  0  0  0  0  0  0  0  0
   -1.2695    2.0073   -0.0360 C   0  0  0  0  0  0  0  0  0  0  0  0
   -1.4634    3.4867   -0.3976 C   0  0  0  0  0  0  0  0  0  0  0  0
   -0.4796    1.8769    1.2757 C   0  0  0  0  0  0  0  0  0  0  0  0
   -3.6566    1.8108    0.8229 N   0  0  0  0  0  0  0  0  0  0  0  0
   -3.6310    1.6666    2.2861 C   0  0  0  0  0  0  0  0  0  0  0  0
   -3.8984    3.0178    2.9475 C   0  0  0  0  0  0  0  0  0  0  0  0
   -5.2906    3.5365    2.5641 C   0  0  0  0  0  0  0  0  0  0  0  0
   -5.5590    3.3901    1.1319 N   0  0  0  0  0  0  0  0  0  0  0  0
   -4.7577    2.5673    0.2735 C   0  0  0  0  0  0  0  0  0  0  0  0
   -5.0269    2.5181   -0.9570 O   0  0  0  0  0  0  0  0  0  0  0  0
    1.0775   -1.6159   -2.0276 O   0  0  0  0  0  0  0  0  0  0  0  0
    6.3808    2.2264   -2.9510 H   0  0  0  0  0  0  0  0  0  0  0  0
    4.9755    2.3439   -4.0839 H   0  0  0  0  0  0  0  0  0  0  0  0
    5.8943    3.8190   -3.5867 H   0  0  0  0  0  0  0  0  0  0  0  0
    2.2113    3.9751    0.8666 H   0  0  0  0  0  0  0  0  0  0  0  0
    1.9257    5.0802   -1.3132 H   0  0  0  0  0  0  0  0  0  0  0  0
    3.4176    4.5315   -3.1933 H   0  0  0  0  0  0  0  0  0  0  0  0
    2.9884    1.6146    1.8560 H   0  0  0  0  0  0  0  0  0  0  0  0
    4.7230    1.2433    1.5665 H   0  0  0  0  0  0  0  0  0  0  0  0
    4.2614    2.8113    2.3163 H   0  0  0  0  0  0  0  0  0  0  0  0
    5.2041    0.2205   -2.4198 H   0  0  0  0  0  0  0  0  0  0  0  0
    6.6126   -0.3068   -1.4389 H   0  0  0  0  0  0  0  0  0  0  0  0
    2.8923    0.1640   -1.1359 H   0  0  0  0  0  0  0  0  0  0  0  0
    2.7195   -2.6448   -0.2290 H   0  0  0  0  0  0  0  0  0  0  0  0
    1.6393   -0.5809    1.7987 H   0  0  0  0  0  0  0  0  0  0  0  0
    3.3637   -0.9918    1.8537 H   0  0  0  0  0  0  0  0  0  0  0  0
    3.8564   -3.6869    1.6086 H   0  0  0  0  0  0  0  0  0  0  0  0
    3.4594   -5.7052    2.9657 H   0  0  0  0  0  0  0  0  0  0  0  0
    1.5305   -5.8083    4.5177 H   0  0  0  0  0  0  0  0  0  0  0  0
   -0.0024   -3.8714    4.7179 H   0  0  0  0  0  0  0  0  0  0  0  0
    0.3702   -1.8446    3.3698 H   0  0  0  0  0  0  0  0  0  0  0  0
    0.5728   -0.4517   -0.3822 H   0  0  0  0  0  0  0  0  0  0  0  0
   -0.2143   -2.3192    0.9725 H   0  0  0  0  0  0  0  0  0  0  0  0
    0.3551   -3.5357   -0.2082 H   0  0  0  0  0  0  0  0  0  0  0  0
   -2.1694   -2.9384   -0.0398 H   0  0  0  0  0  0  0  0  0  0  0  0
   -1.2127   -4.2749   -1.9184 H   0  0  0  0  0  0  0  0  0  0  0  0
   -0.9048   -2.7799   -2.8412 H   0  0  0  0  0  0  0  0  0  0  0  0
   -2.6050   -2.0232   -4.3165 H   0  0  0  0  0  0  0  0  0  0  0  0
   -4.9343   -2.0945   -5.1268 H   0  0  0  0  0  0  0  0  0  0  0  0
   -6.6530   -3.3700   -3.8805 H   0  0  0  0  0  0  0  0  0  0  0  0
   -6.0345   -4.6001   -1.8191 H   0  0  0  0  0  0  0  0  0  0  0  0
   -3.7094   -4.5573   -0.9981 H   0  0  0  0  0  0  0  0  0  0  0  0
   -1.7194   -0.5924   -1.8640 H   0  0  0  0  0  0  0  0  0  0  0  0
   -2.9719    1.3198   -1.1187 H   0  0  0  0  0  0  0  0  0  0  0  0
   -0.6298    1.5736   -0.8374 H   0  0  0  0  0  0  0  0  0  0  0  0
   -2.0776    4.0070    0.3670 H   0  0  0  0  0  0  0  0  0  0  0  0
   -0.4780    3.9949   -0.4661 H   0  0  0  0  0  0  0  0  0  0  0  0
   -1.9675    3.5807   -1.3826 H   0  0  0  0  0  0  0  0  0  0  0  0
   -0.8987    2.5311    2.0674 H   0  0  0  0  0  0  0  0  0  0  0  0
    0.5699    2.1884    1.1076 H   0  0  0  0  0  0  0  0  0  0  0  0
   -0.4605    0.8279    1.6329 H   0  0  0  0  0  0  0  0  0  0  0  0
   -2.6669    1.2651    2.6489 H   0  0  0  0  0  0  0  0  0  0  0  0
   -4.4209    0.9456    2.5938 H   0  0  0  0  0  0  0  0  0  0  0  0
   -3.8336    2.9143    4.0515 H   0  0  0  0  0  0  0  0  0  0  0  0
   -3.1252    3.7500    2.6254 H   0  0  0  0  0  0  0  0  0  0  0  0
   -5.3617    4.6102    2.8405 H   0  0  0  0  0  0  0  0  0  0  0  0
   -6.0676    2.9815    3.1331 H   0  0  0  0  0  0  0  0  0  0  0  0
   -6.4077    3.8537    0.7359 H   0  0  0  0  0  0  0  0  0  0  0  0
    0.9904   -0.7126   -2.4340 H   0  0  0  0  0  0  0  0  0  0  0  0
  1  2  1  0
  2  3  2  0
  3  4  1  0
  4  5  2  0
  5  6  1  0
  6  7  2  0
  4  8  1  0
  3  9  1  0
  9 10  1  0
 10 11  1  0
 11 12  2  0
 11 13  1  0
 13 14  1  0
 14 15  1  0
 15 16  1  0
 16 17  2  0
 17 18  1  0
 18 19  2  0
 19 20  1  0
 20 21  2  0
 14 22  1  0
 22 23  1  0
 23 24  1  0
 24 25  1  0
 25 26  1  0
 26 27  2  0
 27 28  1  0
 28 29  2  0
 29 30  1  0
 30 31  2  0
 24 32  1  0
 32 33  1  0
 33 34  2  0
 33 35  1  0
 35 36  1  0
 36 37  1  0
 36 38  1  0
 35 39  1  0
 39 40  1  0
 40 41  1  0
 41 42  1  0
 42 43  1  0
 43 44  1  0
 44 45  2  0
 22 46  1  0
  7  2  1  0
 21 16  1  0
 31 26  1  0
 44 39  1  0
  1 47  1  0
  1 48  1  0
  1 49  1  0
  5 50  1  0
  6 51  1  0
  7 52  1  0
  8 53  1  0
  8 54  1  0
  8 55  1  0
 10 56  1  0
 10 57  1  0
 13 58  1  0
 14 59  1  1
 15 60  1  0
 15 61  1  0
 17 62  1  0
 18 63  1  0
 19 64  1  0
 20 65  1  0
 21 66  1  0
 22 67  1  6
 23 68  1  0
 23 69  1  0
 24 70  1  1
 25 71  1  0
 25 72  1  0
 27 73  1  0
 28 74  1  0
 29 75  1  0
 30 76  1  0
 31 77  1  0
 32 78  1  0
 35 79  1  6
 36 80  1  0
 37 81  1  0
 37 82  1  0
 37 83  1  0
 38 84  1  0
 38 85  1  0
 38 86  1  0
 40 87  1  0
 40 88  1  0
 41 89  1  0
 41 90  1  0
 42 91  1  0
 42 92  1  0
 43 93  1  0
 46 94  1  0
M  END
$$$$

     RDKit          3D

 75 78  0  0  0  0  0  0  0  0999 V2000
   -2.8195    0.5967   -3.1470 C   0  0  0  0  0  0  0  0  0  0  0  0
   -1.9086    0.9747   -1.9786 C   0  0  0  0  0  0  0  0  0  0  0  0
   -2.5886    0.9010   -0.5910 C   0  0  0  0  0  0  0  0  0  0  0  0
   -2.9821   -0.5127   -0.0284 C   0  0  1  0  0  0  0  0  0  0  0  0
   -1.9493   -1.6112   -0.4119 C   0  0  0  0  0  0  0  0  0  0  0  0
   -0.6113   -1.3675    0.2465 C   0  0  0  0  0  0  0  0  0  0  0  0
   -0.5539   -0.9245    1.5229 C   0  0  0  0  0  0  0  0  0  0  0  0
   -1.8270   -0.5232    2.1700 C   0  0  0  0  0  0  0  0  0  0  0  0
   -1.8804   -0.2784    3.4033 O   0  0  0  0  0  0  0  0  0  0  0  0
   -2.9926   -0.4245    1.4038 O   0  0  0  0  0  0  0  0  0  0  0  0
    0.7607   -0.7666    2.2898 C   0  0  2  0  0  0  0  0  0  0  0  0
    1.3666    0.6485    2.0918 C   0  0  0  0  0  0  0  0  0  0  0  0
    1.6088    1.0568    0.6350 C   0  0  0  0  0  0  0  0  0  0  0  0
    1.7020   -1.9596    2.1038 C   0  0  0  0  0  0  0  0  0  0  0  0
    3.0590   -1.8276    1.7405 C   0  0  0  0  0  0  0  0  0  0  0  0
    3.8701   -2.9645    1.5521 C   0  0  0  0  0  0  0  0  0  0  0  0
    3.3230   -4.2393    1.7540 C   0  0  0  0  0  0  0  0  0  0  0  0
    1.9993   -4.3807    2.1643 C   0  0  0  0  0  0  0  0  0  0  0  0
    1.1962   -3.2529    2.3440 C   0  0  0  0  0  0  0  0  0  0  0  0
    5.2389   -2.8533    1.1247 N   0  0  0  0  0  0  0  0  0  0  0  0
    6.2210   -1.4512    1.4071 S   0  0  0  0  0  0  0  0  0  0  0  0
    7.6674   -1.8620    1.3465 O   0  0  0  0  0  0  0  0  0  0  0  0
    5.9277   -0.9087    2.7796 O   0  0  0  0  0  0  0  0  0  0  0  0
    5.9418   -0.1974    0.2072 C   0  0  0  0  0  0  0  0  0  0  0  0
    6.6946    0.9349    0.2552 N   0  0  0  0  0  0  0  0  0  0  0  0
    6.5111    1.9615   -0.6170 C   0  0  0  0  0  0  0  0  0  0  0  0
    5.5022    1.8903   -1.5879 C   0  0  0  0  0  0  0  0  0  0  0  0
    4.7410    0.7105   -1.6793 C   0  0  0  0  0  0  0  0  0  0  0  0
    4.9608   -0.3369   -0.7825 C   0  0  0  0  0  0  0  0  0  0  0  0
    5.3054    3.0332   -2.5517 C   0  0  0  0  0  0  0  0  0  0  0  0
    6.2983    2.9999   -3.5160 F   0  0  0  0  0  0  0  0  0  0  0  0
    4.0681    2.9624   -3.1769 F   0  0  0  0  0  0  0  0  0  0  0  0
    5.3795    4.2372   -1.8723 F   0  0  0  0  0  0  0  0  0  0  0  0
    0.5533   -1.6424   -0.4680 O   0  0  0  0  0  0  0  0  0  0  0  0
   -4.4095   -0.9488   -0.5095 C   0  0  0  0  0  0  0  0  0  0  0  0
   -5.5796   -0.5271    0.4039 C   0  0  0  0  0  0  0  0  0  0  0  0
   -5.8175    0.9605    0.4114 C   0  0  0  0  0  0  0  0  0  0  0  0
   -5.5510    1.7176    1.5663 C   0  0  0  0  0  0  0  0  0  0  0  0
   -5.7830    3.0953    1.5711 C   0  0  0  0  0  0  0  0  0  0  0  0
   -6.2848    3.7259    0.4291 C   0  0  0  0  0  0  0  0  0  0  0  0
   -6.5602    2.9805   -0.7197 C   0  0  0  0  0  0  0  0  0  0  0  0
   -6.3274    1.6021   -0.7306 C   0  0  0  0  0  0  0  0  0  0  0  0
   -3.7662    1.1751   -3.1074 H   0  0  0  0  0  0  0  0  0  0  0  0
   -2.3038    0.8396   -4.0990 H   0  0  0  0  0  0  0  0  0  0  0  0
   -3.0332   -0.4910   -3.1511 H   0  0  0  0  0  0  0  0  0  0  0  0
   -1.5851    2.0276   -2.1368 H   0  0  0  0  0  0  0  0  0  0  0  0
   -0.9805    0.3656   -2.0068 H   0  0  0  0  0  0  0  0  0  0  0  0
   -3.4667    1.5780   -0.5945 H   0  0  0  0  0  0  0  0  0  0  0  0
   -1.8725    1.3686    0.1203 H   0  0  0  0  0  0  0  0  0  0  0  0
   -1.8492   -1.7203   -1.5111 H   0  0  0  0  0  0  0  0  0  0  0  0
   -2.3067   -2.5965   -0.0368 H   0  0  0  0  0  0  0  0  0  0  0  0
    0.5138   -0.8124    3.3727 H   0  0  0  0  0  0  0  0  0  0  0  0
    0.6707    1.3931    2.5361 H   0  0  0  0  0  0  0  0  0  0  0  0
    2.3131    0.7373    2.6673 H   0  0  0  0  0  0  0  0  0  0  0  0
    2.2021    0.2997    0.0877 H   0  0  0  0  0  0  0  0  0  0  0  0
    2.1649    2.0165    0.6111 H   0  0  0  0  0  0  0  0  0  0  0  0
    0.6463    1.2074    0.1072 H   0  0  0  0  0  0  0  0  0  0  0  0
    3.4879   -0.8521    1.5850 H   0  0  0  0  0  0  0  0  0  0  0  0
    3.9313   -5.1254    1.6130 H   0  0  0  0  0  0  0  0  0  0  0  0
    1.5922   -5.3688    2.3445 H   0  0  0  0  0  0  0  0  0  0  0  0
    0.1690   -3.3889    2.6618 H   0  0  0  0  0  0  0  0  0  0  0  0
    5.7294   -3.7066    0.7785 H   0  0  0  0  0  0  0  0  0  0  0  0
    7.1451    2.8376   -0.5407 H   0  0  0  0  0  0  0  0  0  0  0  0
    3.9747    0.5958   -2.4357 H   0  0  0  0  0  0  0  0  0  0  0  0
    4.3604   -1.2358   -0.8529 H   0  0  0  0  0  0  0  0  0  0  0  0
    0.5189   -1.9932   -1.4183 H   0  0  0  0  0  0  0  0  0  0  0  0
   -4.6195   -0.5948   -1.5366 H   0  0  0  0  0  0  0  0  0  0  0  0
   -4.4616   -2.0586   -0.5673 H   0  0  0  0  0  0  0  0  0  0  0  0
   -6.5106   -1.0245    0.0473 H   0  0  0  0  0  0  0  0  0  0  0  0
   -5.4113   -0.9089    1.4352 H   0  0  0  0  0  0  0  0  0  0  0  0
   -5.1635    1.2421    2.4588 H   0  0  0  0  0  0  0  0  0  0  0  0
   -5.5806    3.6731    2.4605 H   0  0  0  0  0  0  0  0  0  0  0  0
   -6.4697    4.7909    0.4389 H   0  0  0  0  0  0  0  0  0  0  0  0
   -6.9596    3.4681   -1.6012 H   0  0  0  0  0  0  0  0  0  0  0  0
   -6.5499    1.0330   -1.6249 H   0  0  0  0  0  0  0  0  0  0  0  0
  1  2  1  0
  2  3  1  0
  4  3  1  6
  4  5  1  0
  5  6  1  0
  6  7  2  0
  7  8  1  0
  8  9  2  0
  8 10  1  0
  7 11  1  0
 11 12  1  0
 12 13  1  0
 11 14  1  0
 14 15  2  0
 15 16  1  0
 16 17  2  0
 17 18  1  0
 18 19  2  0
 16 20  1  0
 20 21  1  0
 21 22  2  0
 21 23  2  0
 21 24  1  0
 24 25  2  0
 25 26  1  0
 26 27  2  0
 27 28  1  0
 28 29  2  0
 27 30  1  0
 30 31  1  0
 30 32  1  0
 30 33  1  0
  6 34  1  0
  4 35  1  0
 35 36  1  0
 36 37  1  0
 37 38  2  0
 38 39  1  0
 39 40  2  0
 40 41  1  0
 41 42  2  0
 10  4  1  0
 19 14  1  0
 29 24  1  0
 42 37  1  0
  1 43  1  0
  1 44  1  0
  1 45  1  0
  2 46  1  0
  2 47  1  0
  3 48  1  0
  3 49  1  0
  5 50  1  0
  5 51  1  0
 11 52  1  1
 12 53  1  0
 12 54  1  0
 13 55  1  0
 13 56  1  0
 13 57  1  0
 15 58  1  0
 17 59  1  0
 18 60  1  0
 19 61  1  0
 20 62  1  0
 26 63  1  0
 28 64  1  0
 29 65  1  0
 34 66  1  0
 35 67  1  0
 35 68  1  0
 36 69  1  0
 36 70  1  0
 38 71  1  0
 39 72  1  0
 40 73  1  0
 41 74  1  0
 42 75  1  0
M  END
$$$$

     RDKit          3D

 75 78  0  0  0  0  0  0  0  0999 V2000
    2.4255   -0.4626    4.0959 C   0  0  0  0  0  0  0  0  0  0  0  0
    1.8855    0.4254    2.9687 C   0  0  0  0  0  0  0  0  0  0  0  0
    1.5356    1.8170    3.5149 C   0  0  0  0  0  0  0  0  0  0  0  0
    2.9153    0.5192    1.8219 C   0  0  0  0  0  0  0  0  0  0  0  0
    2.3643    1.2444    0.6583 N   0  0  0  0  0  0  0  0  0  0  0  0
    1.4102    0.4210   -0.1229 C   0  0  0  0  0  0  0  0  0  0  0  0
    0.0276    1.1097   -0.1388 C   0  0  2  0  0  0  0  0  0  0  0  0
   -1.1537    0.1655   -0.5046 C   0  0  2  0  0  0  0  0  0  0  0  0
   -1.2857   -0.1804   -2.0069 C   0  0  0  0  0  0  0  0  0  0  0  0
   -0.1376   -0.9937   -2.5535 C   0  0  0  0  0  0  0  0  0  0  0  0
    0.1370   -2.2755   -2.0436 C   0  0  0  0  0  0  0  0  0  0  0  0
    1.1969   -3.0281   -2.5593 C   0  0  0  0  0  0  0  0  0  0  0  0
    1.9759   -2.5190   -3.6005 C   0  0  0  0  0  0  0  0  0  0  0  0
    1.6972   -1.2566   -4.1285 C   0  0  0  0  0  0  0  0  0  0  0  0
    0.6460   -0.4954   -3.6091 C   0  0  0  0  0  0  0  0  0  0  0  0
   -2.4034    0.7949   -0.0634 N   0  0  0  0  0  0  0  0  0  0  0  0
   -3.2606    0.2381    0.9405 C   0  0  0  0  0  0  0  0  0  0  0  0
   -3.0363   -0.9120    1.4108 O   0  0  0  0  0  0  0  0  0  0  0  0
   -4.3514    0.9918    1.3919 O   0  0  0  0  0  0  0  0  0  0  0  0
   -5.2878    0.5285    2.3707 C   0  0  1  0  0  0  0  0  0  0  0  0
   -5.7969    1.7182    3.1580 C   0  0  0  0  0  0  0  0  0  0  0  0
   -6.9162    2.2552    2.4928 O   0  0  0  0  0  0  0  0  0  0  0  0
   -7.4039    1.2641    1.6165 C   0  0  2  0  0  0  0  0  0  0  0  0
   -6.5722    0.0158    1.7498 C   0  0  1  0  0  0  0  0  0  0  0  0
   -6.4932   -0.5157    0.3428 C   0  0  0  0  0  0  0  0  0  0  0  0
   -6.8464    0.6823   -0.5209 C   0  0  0  0  0  0  0  0  0  0  0  0
   -7.3217    1.7360    0.2911 O   0  0  0  0  0  0  0  0  0  0  0  0
    0.0370    2.2706   -0.9328 O   0  0  0  0  0  0  0  0  0  0  0  0
    3.6630    1.8330   -0.3564 S   0  0  0  0  0  0  0  0  0  0  0  0
    4.5875    2.6991    0.4503 O   0  0  0  0  0  0  0  0  0  0  0  0
    3.0871    2.6740   -1.4615 O   0  0  0  0  0  0  0  0  0  0  0  0
    4.5837    0.4974   -1.0515 C   0  0  0  0  0  0  0  0  0  0  0  0
    4.3735    0.1069   -2.3818 C   0  0  0  0  0  0  0  0  0  0  0  0
    5.0977   -0.9592   -2.9243 C   0  0  0  0  0  0  0  0  0  0  0  0
    6.0380   -1.6450   -2.1441 C   0  0  0  0  0  0  0  0  0  0  0  0
    6.2533   -1.2498   -0.8161 C   0  0  0  0  0  0  0  0  0  0  0  0
    5.5336   -0.1817   -0.2753 C   0  0  0  0  0  0  0  0  0  0  0  0
    6.7731   -2.7374   -2.6983 N   0  0  0  0  0  0  0  0  0  0  0  0
    2.6410   -1.4829    3.7105 H   0  0  0  0  0  0  0  0  0  0  0  0
    3.3601   -0.0341    4.5207 H   0  0  0  0  0  0  0  0  0  0  0  0
    1.6716   -0.5557    4.9067 H   0  0  0  0  0  0  0  0  0  0  0  0
    0.9510   -0.0471    2.5932 H   0  0  0  0  0  0  0  0  0  0  0  0
    1.1214    2.4592    2.7091 H   0  0  0  0  0  0  0  0  0  0  0  0
    2.4379    2.3123    3.9349 H   0  0  0  0  0  0  0  0  0  0  0  0
    0.7655    1.7304    4.3109 H   0  0  0  0  0  0  0  0  0  0  0  0
    3.8097    1.0478    2.2181 H   0  0  0  0  0  0  0  0  0  0  0  0
    3.2501   -0.4991    1.5229 H   0  0  0  0  0  0  0  0  0  0  0  0
    1.7605    0.2614   -1.1624 H   0  0  0  0  0  0  0  0  0  0  0  0
    1.3014   -0.6000    0.3063 H   0  0  0  0  0  0  0  0  0  0  0  0
   -0.1650    1.4369    0.9057 H   0  0  0  0  0  0  0  0  0  0  0  0
   -1.0131   -0.7833    0.0544 H   0  0  0  0  0  0  0  0  0  0  0  0
   -2.2127   -0.7768   -2.1489 H   0  0  0  0  0  0  0  0  0  0  0  0
   -1.4279    0.7523   -2.5945 H   0  0  0  0  0  0  0  0  0  0  0  0
   -0.4675   -2.6915   -1.2485 H   0  0  0  0  0  0  0  0  0  0  0  0
    1.4080   -4.0105   -2.1590 H   0  0  0  0  0  0  0  0  0  0  0  0
    2.7937   -3.1039   -4.0004 H   0  0  0  0  0  0  0  0  0  0  0  0
    2.3008   -0.8642   -4.9368 H   0  0  0  0  0  0  0  0  0  0  0  0
    0.4552    0.4895   -4.0208 H   0  0  0  0  0  0  0  0  0  0  0  0
   -2.6750    1.7130   -0.4830 H   0  0  0  0  0  0  0  0  0  0  0  0
   -4.8287   -0.2196    3.0533 H   0  0  0  0  0  0  0  0  0  0  0  0
   -6.1020    1.3961    4.1782 H   0  0  0  0  0  0  0  0  0  0  0  0
   -5.0113    2.4966    3.2621 H   0  0  0  0  0  0  0  0  0  0  0  0
   -8.4665    1.0481    1.8584 H   0  0  0  0  0  0  0  0  0  0  0  0
   -7.0605   -0.7174    2.4335 H   0  0  0  0  0  0  0  0  0  0  0  0
   -5.5054   -0.9493    0.0856 H   0  0  0  0  0  0  0  0  0  0  0  0
   -7.2631   -1.3088    0.2075 H   0  0  0  0  0  0  0  0  0  0  0  0
   -7.6293    0.4045   -1.2630 H   0  0  0  0  0  0  0  0  0  0  0  0
   -5.9463    1.0319   -1.0747 H   0  0  0  0  0  0  0  0  0  0  0  0
    0.3750    2.0235   -1.8313 H   0  0  0  0  0  0  0  0  0  0  0  0
    3.6500    0.6234   -3.0002 H   0  0  0  0  0  0  0  0  0  0  0  0
    4.9241   -1.2513   -3.9519 H   0  0  0  0  0  0  0  0  0  0  0  0
    6.9802   -1.7680   -0.2038 H   0  0  0  0  0  0  0  0  0  0  0  0
    5.7161    0.1133    0.7496 H   0  0  0  0  0  0  0  0  0  0  0  0
    7.4977   -3.2372   -2.1333 H   0  0  0  0  0  0  0  0  0  0  0  0
    6.6259   -3.0353   -3.6901 H   0  0  0  0  0  0  0  0  0  0  0  0
  1  2  1  0
  2  3  1  0
  2  4  1  0
  4  5  1  0
  5  6  1  0
  6  7  1  0
  7  8  1  0
  8  9  1  0
  9 10  1  0
 10 11  2  0
 11 12  1  0
 12 13  2  0
 13 14  1  0
 14 15  2  0
  8 16  1  0
 16 17  1  0
 17 18  2  0
 17 19  1  0
 19 20  1  0
 20 21  1  0
 21 22  1  0
 22 23  1  0
 23 24  1  0
 24 25  1  0
 25 26  1  0
 26 27  1  0
  7 28  1  0
  5 29  1  0
 29 30  2  0
 29 31  2  0
 29 32  1  0
 32 33  2  0
 33 34  1  0
 34 35  2  0
 35 36  1  0
 36 37  2  0
 35 38  1  0
 15 10  1  0
 24 20  1  0
 27 23  1  0
 37 32  1  0
  1 39  1  0
  1 40  1  0
  1 41  1  0
  2 42  1  0
  3 43  1  0
  3 44  1  0
  3 45  1  0
  4 46  1  0
  4 47  1  0
  6 48  1  0
  6 49  1  0
  7 50  1  1
  8 51  1  1
  9 52  1  0
  9 53  1  0
 11 54  1  0
 12 55  1  0
 13 56  1  0
 14 57  1  0
 15 58  1  0
 16 59  1  0
 20 60  1  1
 21 61  1  0
 21 62  1  0
 23 63  1  1
 24 64  1  1
 25 65  1  0
 25 66  1  0
 26 67  1  0
 26 68  1  0
 28 69  1  0
 33 70  1  0
 34 71  1  0
 36 72  1  0
 37 73  1  0
 38 74  1  0
 38 75  1  0
M  END
$$$$

     RDKit          3D

 70 72  0  0  0  0  0  0  0  0999 V2000
    0.5280   -3.2904    1.0428 C   0  0  0  0  0  0  0  0  0  0  0  0
    1.6533   -2.4048    1.5871 C   0  0  0  0  0  0  0  0  0  0  0  0
    1.3053   -1.9107    2.9927 C   0  0  0  0  0  0  0  0  0  0  0  0
    2.0615   -1.2666    0.6132 C   0  0  0  0  0  0  0  0  0  0  0  0
    0.9688   -0.2948    0.3179 N   0  0  0  0  0  0  0  0  0  0  0  0
    0.9118    0.0352   -1.1319 C   0  0  0  0  0  0  0  0  0  0  0  0
   -0.0346   -0.8927   -1.9238 C   0  0  2  0  0  0  0  0  0  0  0  0
   -1.4883   -0.8743   -1.3784 C   0  0  2  0  0  0  0  0  0  0  0  0
   -2.4449   -1.7262   -2.2446 C   0  0  0  0  0  0  0  0  0  0  0  0
   -2.2308   -3.2095   -2.0623 C   0  0  0  0  0  0  0  0  0  0  0  0
   -2.5255   -3.8206   -0.8310 C   0  0  0  0  0  0  0  0  0  0  0  0
   -2.3040   -5.1889   -0.6511 C   0  0  0  0  0  0  0  0  0  0  0  0
   -1.8000   -5.9597   -1.7018 C   0  0  0  0  0  0  0  0  0  0  0  0
   -1.5227   -5.3648   -2.9349 C   0  0  0  0  0  0  0  0  0  0  0  0
   -1.7407   -3.9960   -3.1190 C   0  0  0  0  0  0  0  0  0  0  0  0
   -1.9967    0.5014   -1.3407 N   0  0  0  0  0  0  0  0  0  0  0  0
   -2.6881    1.0472   -0.2106 C   0  0  0  0  0  0  0  0  0  0  0  0
   -2.9664    0.3189    0.7821 O   0  0  0  0  0  0  0  0  0  0  0  0
   -3.0654    2.3934   -0.2267 O   0  0  0  0  0  0  0  0  0  0  0  0
   -3.8361    3.0075    0.8086 C   0  0  1  0  0  0  0  0  0  0  0  0
   -2.9968    3.2752    2.0254 C   0  0  0  0  0  0  0  0  0  0  0  0
   -2.4370    4.6569    1.7550 C   0  0  0  0  0  0  0  0  0  0  0  0
   -3.2681    5.3268    0.8329 O   0  0  0  0  0  0  0  0  0  0  0  0
   -4.2366    4.4060    0.3816 C   0  0  0  0  0  0  0  0  0  0  0  0
    0.4698   -2.2011   -1.9291 O   0  0  0  0  0  0  0  0  0  0  0  0
    1.2138    1.2109    1.2007 S   0  0  0  0  0  0  0  0  0  0  0  0
    0.1071    2.1735    0.8696 O   0  0  0  0  0  0  0  0  0  0  0  0
    1.1738    0.9793    2.6836 O   0  0  0  0  0  0  0  0  0  0  0  0
    2.7548    1.9683    0.7820 C   0  0  0  0  0  0  0  0  0  0  0  0
    3.8868    1.7596    1.5834 C   0  0  0  0  0  0  0  0  0  0  0  0
    5.1055    2.3593    1.2529 C   0  0  0  0  0  0  0  0  0  0  0  0
    5.2030    3.1806    0.1215 C   0  0  0  0  0  0  0  0  0  0  0  0
    4.0690    3.3995   -0.6735 C   0  0  0  0  0  0  0  0  0  0  0  0
    2.8512    2.7971   -0.3445 C   0  0  0  0  0  0  0  0  0  0  0  0
    6.4498    3.7964   -0.2150 N   0  0  0  0  0  0  0  0  0  0  0  0
    0.3603   -4.1509    1.7256 H   0  0  0  0  0  0  0  0  0  0  0  0
   -0.4177   -2.7206    0.9723 H   0  0  0  0  0  0  0  0  0  0  0  0
    0.7990   -3.7042    0.0498 H   0  0  0  0  0  0  0  0  0  0  0  0
    2.5474   -3.0593    1.6959 H   0  0  0  0  0  0  0  0  0  0  0  0
    0.3431   -1.3580    2.9867 H   0  0  0  0  0  0  0  0  0  0  0  0
    2.1199   -1.2650    3.3865 H   0  0  0  0  0  0  0  0  0  0  0  0
    1.2013   -2.7771    3.6824 H   0  0  0  0  0  0  0  0  0  0  0  0
    2.4220   -1.7684   -0.3123 H   0  0  0  0  0  0  0  0  0  0  0  0
    2.9610   -0.7614    1.0209 H   0  0  0  0  0  0  0  0  0  0  0  0
    1.9260    0.0233   -1.5920 H   0  0  0  0  0  0  0  0  0  0  0  0
    0.5408    1.0682   -1.3031 H   0  0  0  0  0  0  0  0  0  0  0  0
   -0.0669   -0.5150   -2.9740 H   0  0  0  0  0  0  0  0  0  0  0  0
   -1.4814   -1.2836   -0.3502 H   0  0  0  0  0  0  0  0  0  0  0  0
   -3.4965   -1.4967   -1.9650 H   0  0  0  0  0  0  0  0  0  0  0  0
   -2.3320   -1.4386   -3.3134 H   0  0  0  0  0  0  0  0  0  0  0  0
   -2.9201   -3.2342   -0.0098 H   0  0  0  0  0  0  0  0  0  0  0  0
   -2.5222   -5.6522    0.3024 H   0  0  0  0  0  0  0  0  0  0  0  0
   -1.6249   -7.0178   -1.5605 H   0  0  0  0  0  0  0  0  0  0  0  0
   -1.1342   -5.9645   -3.7474 H   0  0  0  0  0  0  0  0  0  0  0  0
   -1.5132   -3.5496   -4.0790 H   0  0  0  0  0  0  0  0  0  0  0  0
   -1.9097    1.0944   -2.1978 H   0  0  0  0  0  0  0  0  0  0  0  0
   -4.7313    2.3911    1.0455 H   0  0  0  0  0  0  0  0  0  0  0  0
   -2.1973    2.5198    2.1778 H   0  0  0  0  0  0  0  0  0  0  0  0
   -3.6465    3.3033    2.9270 H   0  0  0  0  0  0  0  0  0  0  0  0
   -1.4166    4.5712    1.3220 H   0  0  0  0  0  0  0  0  0  0  0  0
   -2.3725    5.2400    2.6984 H   0  0  0  0  0  0  0  0  0  0  0  0
   -5.2179    4.6692    0.8320 H   0  0  0  0  0  0  0  0  0  0  0  0
   -4.3363    4.4746   -0.7224 H   0  0  0  0  0  0  0  0  0  0  0  0
    1.2395   -2.2133   -2.5537 H   0  0  0  0  0  0  0  0  0  0  0  0
    3.8282    1.1290    2.4624 H   0  0  0  0  0  0  0  0  0  0  0  0
    5.9726    2.1840    1.8780 H   0  0  0  0  0  0  0  0  0  0  0  0
    4.1292    4.0372   -1.5470 H   0  0  0  0  0  0  0  0  0  0  0  0
    1.9847    2.9815   -0.9662 H   0  0  0  0  0  0  0  0  0  0  0  0
    6.5270    4.4242   -1.0464 H   0  0  0  0  0  0  0  0  0  0  0  0
    7.3045    3.6274    0.3600 H   0  0  0  0  0  0  0  0  0  0  0  0
  1  2  1  0
  2  3  1  0
  2  4  1  0
  4  5  1  0
  5  6  1  0
  6  7  1  0
  7  8  1  0
  8  9  1  0
  9 10  1  0
 10 11  2  0
 11 12  1  0
 12 13  2  0
 13 14  1  0
 14 15  2  0
  8 16  1  0
 16 17  1  0
 17 18  2  0
 17 19  1  0
 19 20  1  0
 20 21  1  0
 21 22  1  0
 22 23  1  0
 23 24  1  0
  7 25  1  0
  5 26  1  0
 26 27  2  0
 26 28  2  0
 26 29  1  0
 29 30  2  0
 30 31  1  0
 31 32  2  0
 32 33  1  0
 33 34  2  0
 32 35  1  0
 15 10  1  0
 24 20  1  0
 34 29  1  0
  1 36  1  0
  1 37  1  0
  1 38  1  0
  2 39  1  0
  3 40  1  0
  3 41  1  0
  3 42  1  0
  4 43  1  0
  4 44  1  0
  6 45  1  0
  6 46  1  0
  7 47  1  6
  8 48  1  1
  9 49  1  0
  9 50  1  0
 11 51  1  0
 12 52  1  0
 13 53  1  0
 14 54  1  0
 15 55  1  0
 16 56  1  0
 20 57  1  1
 21 58  1  0
 21 59  1  0
 22 60  1  0
 22 61  1  0
 24 62  1  0
 24 63  1  0
 25 64  1  0
 30 65  1  0
 31 66  1  0
 33 67  1  0
 34 68  1  0
 35 69  1  0
 35 70  1  0
M  END
$$$$

     RDKit          3D

103105  0  0  0  0  0  0  0  0999 V2000
    5.9169   -0.7017   -1.6340 C   0  0  0  0  0  0  0  0  0  0  0  0
    6.3967   -0.1515   -0.2705 C   0  0  0  0  0  0  0  0  0  0  0  0
    6.5984   -1.3125    0.7391 C   0  0  0  0  0  0  0  0  0  0  0  0
    7.7926    0.4826   -0.5113 C   0  0  0  0  0  0  0  0  0  0  0  0
    5.4275    0.9673    0.2729 C   0  0  1  0  0  0  0  0  0  0  0  0
    3.9140    0.7551    0.2533 C   0  0  0  0  0  0  0  0  0  0  0  0
    3.1955    1.7929    0.3313 O   0  0  0  0  0  0  0  0  0  0  0  0
    3.2715   -0.5363    0.1969 N   0  0  0  0  0  0  0  0  0  0  0  0
    1.8093   -0.7087    0.1973 C   0  0  1  0  0  0  0  0  0  0  0  0
    1.3885   -1.5892   -1.0024 C   0  0  0  0  0  0  0  0  0  0  0  0
    1.9699   -1.0916   -2.3046 C   0  0  0  0  0  0  0  0  0  0  0  0
    2.8215   -1.9161   -3.0627 C   0  0  0  0  0  0  0  0  0  0  0  0
    3.3938   -1.4406   -4.2465 C   0  0  0  0  0  0  0  0  0  0  0  0
    3.1201   -0.1434   -4.6883 C   0  0  0  0  0  0  0  0  0  0  0  0
    2.2547    0.6717   -3.9562 C   0  0  0  0  0  0  0  0  0  0  0  0
    1.6703    0.2000   -2.7763 C   0  0  0  0  0  0  0  0  0  0  0  0
    1.3894   -1.3159    1.5566 C   0  0  2  0  0  0  0  0  0  0  0  0
   -0.1207   -1.6458    1.6939 C   0  0  0  0  0  0  0  0  0  0  0  0
   -1.0326   -0.6252    1.1276 N   0  0  0  0  0  0  0  0  0  0  0  0
   -0.9878    0.6345    1.8983 C   0  0  0  0  0  0  0  0  0  0  0  0
   -1.9440    1.6551    1.3302 C   0  0  0  0  0  0  0  0  0  0  0  0
   -1.8338    2.0550   -0.0083 C   0  0  0  0  0  0  0  0  0  0  0  0
   -2.6775    3.0446   -0.5222 C   0  0  0  0  0  0  0  0  0  0  0  0
   -3.6506    3.6520    0.2923 C   0  0  0  0  0  0  0  0  0  0  0  0
   -3.7574    3.2458    1.6335 C   0  0  0  0  0  0  0  0  0  0  0  0
   -2.9193    2.2496    2.1442 C   0  0  0  0  0  0  0  0  0  0  0  0
   -4.5116    4.7530   -0.2178 C   0  0  0  0  0  0  0  0  0  0  0  0
   -4.8968    4.8285   -1.5678 C   0  0  0  0  0  0  0  0  0  0  0  0
   -5.6775    5.9063   -2.0021 C   0  0  0  0  0  0  0  0  0  0  0  0
   -6.0676    6.8978   -1.1043 C   0  0  0  0  0  0  0  0  0  0  0  0
   -5.6772    6.7896    0.2306 C   0  0  0  0  0  0  0  0  0  0  0  0
   -4.9187    5.7335    0.6368 N   0  0  0  0  0  0  0  0  0  0  0  0
   -2.3449   -1.1485    1.1975 N   0  0  0  0  0  0  0  0  0  0  0  0
   -2.8606   -1.9906    0.1559 C   0  0  0  0  0  0  0  0  0  0  0  0
   -2.2075   -2.1421   -0.9114 O   0  0  0  0  0  0  0  0  0  0  0  0
   -4.1579   -2.7325    0.3592 C   0  0  2  0  0  0  0  0  0  0  0  0
   -3.9727   -4.0977    1.1129 C   0  0  0  0  0  0  0  0  0  0  0  0
   -2.9565   -5.0301    0.4046 C   0  0  0  0  0  0  0  0  0  0  0  0
   -3.4920   -3.8434    2.5583 C   0  0  0  0  0  0  0  0  0  0  0  0
   -5.3314   -4.8299    1.1883 C   0  0  0  0  0  0  0  0  0  0  0  0
   -4.8222   -2.9248   -0.9363 N   0  0  0  0  0  0  0  0  0  0  0  0
   -5.9979   -2.2014   -1.3282 C   0  0  0  0  0  0  0  0  0  0  0  0
   -6.4909   -1.3168   -0.5717 O   0  0  0  0  0  0  0  0  0  0  0  0
   -6.5818   -2.4766   -2.5668 O   0  0  0  0  0  0  0  0  0  0  0  0
   -7.6983   -1.7439   -3.0679 C   0  0  0  0  0  0  0  0  0  0  0  0
    1.7951   -0.4509    2.5891 O   0  0  0  0  0  0  0  0  0  0  0  0
    5.8204    1.3754    1.6280 N   0  0  0  0  0  0  0  0  0  0  0  0
    6.4001    2.6493    1.9377 C   0  0  0  0  0  0  0  0  0  0  0  0
    6.6439    3.4822    1.0216 O   0  0  0  0  0  0  0  0  0  0  0  0
    6.7048    2.9490    3.2665 O   0  0  0  0  0  0  0  0  0  0  0  0
    7.3032    4.1781    3.6626 C   0  0  0  0  0  0  0  0  0  0  0  0
    5.0055   -1.3050   -1.5441 H   0  0  0  0  0  0  0  0  0  0  0  0
    6.6889   -1.3648   -2.0801 H   0  0  0  0  0  0  0  0  0  0  0  0
    5.7233    0.1261   -2.3477 H   0  0  0  0  0  0  0  0  0  0  0  0
    5.6624   -1.6538    1.2166 H   0  0  0  0  0  0  0  0  0  0  0  0
    7.2644   -0.9991    1.5688 H   0  0  0  0  0  0  0  0  0  0  0  0
    7.0789   -2.1857    0.2453 H   0  0  0  0  0  0  0  0  0  0  0  0
    8.2077    0.9106    0.4259 H   0  0  0  0  0  0  0  0  0  0  0  0
    8.5104   -0.2795   -0.8803 H   0  0  0  0  0  0  0  0  0  0  0  0
    7.7352    1.2976   -1.2676 H   0  0  0  0  0  0  0  0  0  0  0  0
    5.5730    1.8279   -0.4163 H   0  0  0  0  0  0  0  0  0  0  0  0
    3.8183   -1.4169    0.2474 H   0  0  0  0  0  0  0  0  0  0  0  0
    1.3085    0.2746    0.0765 H   0  0  0  0  0  0  0  0  0  0  0  0
    1.7000   -2.6426   -0.8176 H   0  0  0  0  0  0  0  0  0  0  0  0
    0.2859   -1.5798   -1.1015 H   0  0  0  0  0  0  0  0  0  0  0  0
    3.0590   -2.9199   -2.7318 H   0  0  0  0  0  0  0  0  0  0  0  0
    4.0741   -2.0696   -4.8048 H   0  0  0  0  0  0  0  0  0  0  0  0
    3.5849    0.2337   -5.5924 H   0  0  0  0  0  0  0  0  0  0  0  0
    2.0283    1.6685   -4.3056 H   0  0  0  0  0  0  0  0  0  0  0  0
    1.0023    0.8493   -2.2238 H   0  0  0  0  0  0  0  0  0  0  0  0
    1.9450   -2.2792    1.6715 H   0  0  0  0  0  0  0  0  0  0  0  0
   -0.2968   -2.6112    1.1679 H   0  0  0  0  0  0  0  0  0  0  0  0
   -0.3611   -1.8333    2.7660 H   0  0  0  0  0  0  0  0  0  0  0  0
    0.0213    1.0896    1.8300 H   0  0  0  0  0  0  0  0  0  0  0  0
   -1.2032    0.4425    2.9747 H   0  0  0  0  0  0  0  0  0  0  0  0
   -1.0796    1.6184   -0.6495 H   0  0  0  0  0  0  0  0  0  0  0  0
   -2.5367    3.3570   -1.5478 H   0  0  0  0  0  0  0  0  0  0  0  0
   -4.4918    3.6974    2.2899 H   0  0  0  0  0  0  0  0  0  0  0  0
   -3.0155    1.9707    3.1889 H   0  0  0  0  0  0  0  0  0  0  0  0
   -4.6164    4.0557   -2.2769 H   0  0  0  0  0  0  0  0  0  0  0  0
   -5.9840    5.9671   -3.0371 H   0  0  0  0  0  0  0  0  0  0  0  0
   -6.6788    7.7326   -1.4290 H   0  0  0  0  0  0  0  0  0  0  0  0
   -5.9778    7.5442    0.9482 H   0  0  0  0  0  0  0  0  0  0  0  0
   -2.9154   -1.0244    2.0710 H   0  0  0  0  0  0  0  0  0  0  0  0
   -4.8028   -2.0839    0.9906 H   0  0  0  0  0  0  0  0  0  0  0  0
   -3.2906   -5.2830   -0.6256 H   0  0  0  0  0  0  0  0  0  0  0  0
   -2.8510   -5.9877    0.9603 H   0  0  0  0  0  0  0  0  0  0  0  0
   -1.9447   -4.5708    0.3555 H   0  0  0  0  0  0  0  0  0  0  0  0
   -4.1804   -3.1427    3.0799 H   0  0  0  0  0  0  0  0  0  0  0  0
   -3.4586   -4.7967    3.1337 H   0  0  0  0  0  0  0  0  0  0  0  0
   -2.4689   -3.4152    2.5727 H   0  0  0  0  0  0  0  0  0  0  0  0
   -5.2606   -5.7343    1.8214 H   0  0  0  0  0  0  0  0  0  0  0  0
   -5.6739   -5.1535    0.1843 H   0  0  0  0  0  0  0  0  0  0  0  0
   -6.1036   -4.1665    1.6240 H   0  0  0  0  0  0  0  0  0  0  0  0
   -4.3947   -3.5693   -1.6402 H   0  0  0  0  0  0  0  0  0  0  0  0
   -7.4150   -0.6778   -3.2130 H   0  0  0  0  0  0  0  0  0  0  0  0
   -8.0071   -2.1677   -4.0505 H   0  0  0  0  0  0  0  0  0  0  0  0
   -8.5498   -1.8115   -2.3598 H   0  0  0  0  0  0  0  0  0  0  0  0
    1.8198   -0.9913    3.4202 H   0  0  0  0  0  0  0  0  0  0  0  0
    5.6508    0.7143    2.4193 H   0  0  0  0  0  0  0  0  0  0  0  0
    7.4591    4.1670    4.7609 H   0  0  0  0  0  0  0  0  0  0  0  0
    6.6505    5.0335    3.4009 H   0  0  0  0  0  0  0  0  0  0  0  0
    8.2904    4.2974    3.1713 H   0  0  0  0  0  0  0  0  0  0  0  0
  1  2  1  0
  2  3  1  0
  2  4  1  0
  2  5  1  0
  5  6  1  0
  6  7  2  0
  6  8  1  0
  8  9  1  0
  9 10  1  0
 10 11  1  0
 11 12  2  0
 12 13  1  0
 13 14  2  0
 14 15  1  0
 15 16  2  0
  9 17  1  0
 17 18  1  0
 18 19  1  0
 19 20  1  0
 20 21  1  0
 21 22  2  0
 22 23  1  0
 23 24  2  0
 24 25  1  0
 25 26  2  0
 24 27  1  0
 27 28  2  0
 28 29  1  0
 29 30  2  0
 30 31  1  0
 31 32  2  0
 19 33  1  0
 33 34  1  0
 34 35  2  0
 34 36  1  0
 36 37  1  0
 37 38  1  0
 37 39  1  0
 37 40  1  0
 36 41  1  0
 41 42  1  0
 42 43  2  0
 42 44  1  0
 44 45  1  0
 17 46  1  0
  5 47  1  0
 47 48  1  0
 48 49  2  0
 48 50  1  0
 50 51  1  0
 16 11  1  0
 26 21  1  0
 32 27  1  0
  1 52  1  0
  1 53  1  0
  1 54  1  0
  3 55  1  0
  3 56  1  0
  3 57  1  0
  4 58  1  0
  4 59  1  0
  4 60  1  0
  5 61  1  6
  8 62  1  0
  9 63  1  6
 10 64  1  0
 10 65  1  0
 12 66  1  0
 13 67  1  0
 14 68  1  0
 15 69  1  0
 16 70  1  0
 17 71  1  1
 18 72  1  0
 18 73  1  0
 20 74  1  0
 20 75  1  0
 22 76  1  0
 23 77  1  0
 25 78  1  0
 26 79  1  0
 28 80  1  0
 29 81  1  0
 30 82  1  0
 31 83  1  0
 33 84  1  0
 36 85  1  1
 38 86  1  0
 38 87  1  0
 38 88  1  0
 39 89  1  0
 39 90  1  0
 39 91  1  0
 40 92  1  0
 40 93  1  0
 40 94  1  0
 41 95  1  0
 45 96  1  0
 45 97  1  0
 45 98  1  0
 46 99  1  0
 47100  1  0
 51101  1  0
 51102  1  0
 51103  1  0
M  END
$$$$

     RDKit          3D

 98101  0  0  0  0  0  0  0  0999 V2000
    8.7433    1.1432    0.8859 C   0  0  0  0  0  0  0  0  0  0  0  0
    8.2044    2.5768    0.8900 C   0  0  0  0  0  0  0  0  0  0  0  0
    9.0999    3.5020    0.0591 C   0  0  0  0  0  0  0  0  0  0  0  0
    6.7953    2.6049    0.3716 C   0  0  0  0  0  0  0  0  0  0  0  0
    6.4515    2.2434   -0.8842 N   0  0  0  0  0  0  0  0  0  0  0  0
    5.1098    2.3306   -1.0889 C   0  0  0  0  0  0  0  0  0  0  0  0
    4.3687    2.7415    0.0166 C   0  0  0  0  0  0  0  0  0  0  0  0
    5.4431    3.0255    1.2779 S   0  0  0  0  0  0  0  0  0  0  0  0
    4.4825    1.8860   -2.3745 C   0  0  0  0  0  0  0  0  0  0  0  0
    4.3136    0.4271   -2.3556 N   0  0  0  0  0  0  0  0  0  0  0  0
    5.4782   -0.4245   -2.6168 C   0  0  0  0  0  0  0  0  0  0  0  0
    3.0493   -0.1541   -1.9727 C   0  0  0  0  0  0  0  0  0  0  0  0
    1.9846    0.5013   -2.1415 O   0  0  0  0  0  0  0  0  0  0  0  0
    2.9905   -1.4626   -1.3770 N   0  0  0  0  0  0  0  0  0  0  0  0
    1.7389   -2.0479   -0.8693 C   0  0  1  0  0  0  0  0  0  0  0  0
    1.9715   -3.4929   -0.3357 C   0  0  0  0  0  0  0  0  0  0  0  0
    2.8868   -3.5456    0.9006 C   0  0  0  0  0  0  0  0  0  0  0  0
    0.6454   -4.2105   -0.0379 C   0  0  0  0  0  0  0  0  0  0  0  0
    1.1047   -1.1488    0.1699 C   0  0  0  0  0  0  0  0  0  0  0  0
    1.8371   -0.4675    0.9396 O   0  0  0  0  0  0  0  0  0  0  0  0
   -0.3280   -1.0731    0.2664 N   0  0  0  0  0  0  0  0  0  0  0  0
   -1.0675   -0.1056    1.0896 C   0  0  1  0  0  0  0  0  0  0  0  0
   -0.7235   -0.2362    2.5890 C   0  0  0  0  0  0  0  0  0  0  0  0
   -0.7563   -1.6684    3.0638 C   0  0  0  0  0  0  0  0  0  0  0  0
   -1.9496   -2.4100    3.0120 C   0  0  0  0  0  0  0  0  0  0  0  0
   -1.9671   -3.7447    3.4298 C   0  0  0  0  0  0  0  0  0  0  0  0
   -0.8010   -4.3442    3.9138 C   0  0  0  0  0  0  0  0  0  0  0  0
    0.3845   -3.6082    3.9846 C   0  0  0  0  0  0  0  0  0  0  0  0
    0.4078   -2.2751    3.5653 C   0  0  0  0  0  0  0  0  0  0  0  0
   -0.8442    1.3398    0.5927 C   0  0  0  0  0  0  0  0  0  0  0  0
   -1.1979    1.5590   -0.9001 C   0  0  1  0  0  0  0  0  0  0  0  0
   -2.7044    1.3425   -1.2051 C   0  0  2  0  0  0  0  0  0  0  0  0
   -3.0117    1.5605   -2.7019 C   0  0  0  0  0  0  0  0  0  0  0  0
   -4.4522    1.2445   -3.0250 C   0  0  0  0  0  0  0  0  0  0  0  0
   -4.9185   -0.0819   -2.9808 C   0  0  0  0  0  0  0  0  0  0  0  0
   -6.2539   -0.3701   -3.2829 C   0  0  0  0  0  0  0  0  0  0  0  0
   -7.1304    0.6594   -3.6371 C   0  0  0  0  0  0  0  0  0  0  0  0
   -6.6745    1.9781   -3.6909 C   0  0  0  0  0  0  0  0  0  0  0  0
   -5.3409    2.2712   -3.3868 C   0  0  0  0  0  0  0  0  0  0  0  0
   -3.5248    2.2488   -0.3919 N   0  0  0  0  0  0  0  0  0  0  0  0
   -4.4831    1.7802    0.5628 C   0  0  0  0  0  0  0  0  0  0  0  0
   -5.0670    2.6095    1.3105 O   0  0  0  0  0  0  0  0  0  0  0  0
   -4.7685    0.4119    0.6653 O   0  0  0  0  0  0  0  0  0  0  0  0
   -5.6680   -0.1331    1.6300 C   0  0  0  0  0  0  0  0  0  0  0  0
   -7.0996    0.1671    1.2920 C   0  0  0  0  0  0  0  0  0  0  0  0
   -7.5921    0.7038    0.1063 C   0  0  0  0  0  0  0  0  0  0  0  0
   -8.9425    0.8541    0.0695 N   0  0  0  0  0  0  0  0  0  0  0  0
   -9.5371    0.4401    1.2099 C   0  0  0  0  0  0  0  0  0  0  0  0
   -8.4035   -0.1351    2.3116 S   0  0  0  0  0  0  0  0  0  0  0  0
   -0.8313    2.8654   -1.2701 O   0  0  0  0  0  0  0  0  0  0  0  0
    8.0947    0.4918    1.5127 H   0  0  0  0  0  0  0  0  0  0  0  0
    8.7701    0.7350   -0.1478 H   0  0  0  0  0  0  0  0  0  0  0  0
    9.7709    1.1182    1.3101 H   0  0  0  0  0  0  0  0  0  0  0  0
    8.2087    2.9415    1.9394 H   0  0  0  0  0  0  0  0  0  0  0  0
   10.1297    3.5125    0.4791 H   0  0  0  0  0  0  0  0  0  0  0  0
    9.1445    3.1625   -0.9977 H   0  0  0  0  0  0  0  0  0  0  0  0
    8.7050    4.5400    0.0864 H   0  0  0  0  0  0  0  0  0  0  0  0
    3.2931    2.8389    0.0673 H   0  0  0  0  0  0  0  0  0  0  0  0
    5.1251    2.1850   -3.2314 H   0  0  0  0  0  0  0  0  0  0  0  0
    3.5091    2.4050   -2.5175 H   0  0  0  0  0  0  0  0  0  0  0  0
    5.8429   -0.8701   -1.6670 H   0  0  0  0  0  0  0  0  0  0  0  0
    6.3123    0.1630   -3.0584 H   0  0  0  0  0  0  0  0  0  0  0  0
    5.2045   -1.2280   -3.3332 H   0  0  0  0  0  0  0  0  0  0  0  0
    3.8645   -2.0279   -1.3275 H   0  0  0  0  0  0  0  0  0  0  0  0
    1.0416   -2.1165   -1.7334 H   0  0  0  0  0  0  0  0  0  0  0  0
    2.4721   -4.0701   -1.1453 H   0  0  0  0  0  0  0  0  0  0  0  0
    2.4306   -3.0047    1.7539 H   0  0  0  0  0  0  0  0  0  0  0  0
    3.0537   -4.6024    1.2051 H   0  0  0  0  0  0  0  0  0  0  0  0
    3.8794   -3.0976    0.6844 H   0  0  0  0  0  0  0  0  0  0  0  0
    0.1248   -3.7480    0.8279 H   0  0  0  0  0  0  0  0  0  0  0  0
    0.8361   -5.2788    0.2036 H   0  0  0  0  0  0  0  0  0  0  0  0
   -0.0208   -4.1749   -0.9266 H   0  0  0  0  0  0  0  0  0  0  0  0
   -0.8950   -1.7171   -0.3315 H   0  0  0  0  0  0  0  0  0  0  0  0
   -2.1499   -0.3325    1.0008 H   0  0  0  0  0  0  0  0  0  0  0  0
   -1.4601    0.3467    3.1819 H   0  0  0  0  0  0  0  0  0  0  0  0
    0.2680    0.2210    2.7917 H   0  0  0  0  0  0  0  0  0  0  0  0
   -2.8633   -1.9579    2.6425 H   0  0  0  0  0  0  0  0  0  0  0  0
   -2.8854   -4.3165    3.3816 H   0  0  0  0  0  0  0  0  0  0  0  0
   -0.8175   -5.3790    4.2334 H   0  0  0  0  0  0  0  0  0  0  0  0
    1.2872   -4.0724    4.3577 H   0  0  0  0  0  0  0  0  0  0  0  0
    1.3355   -1.7200    3.6236 H   0  0  0  0  0  0  0  0  0  0  0  0
    0.2255    1.6100    0.7427 H   0  0  0  0  0  0  0  0  0  0  0  0
   -1.4370    2.0404    1.2199 H   0  0  0  0  0  0  0  0  0  0  0  0
   -0.6214    0.8316   -1.5162 H   0  0  0  0  0  0  0  0  0  0  0  0
   -2.9482    0.2833   -0.9801 H   0  0  0  0  0  0  0  0  0  0  0  0
   -2.7779    2.6098   -2.9836 H   0  0  0  0  0  0  0  0  0  0  0  0
   -2.3612    0.9059   -3.3212 H   0  0  0  0  0  0  0  0  0  0  0  0
   -4.2506   -0.8912   -2.7151 H   0  0  0  0  0  0  0  0  0  0  0  0
   -6.6103   -1.3915   -3.2433 H   0  0  0  0  0  0  0  0  0  0  0  0
   -8.1630    0.4366   -3.8704 H   0  0  0  0  0  0  0  0  0  0  0  0
   -7.3552    2.7733   -3.9631 H   0  0  0  0  0  0  0  0  0  0  0  0
   -5.0049    3.2994   -3.4268 H   0  0  0  0  0  0  0  0  0  0  0  0
   -3.3926    3.2813   -0.4954 H   0  0  0  0  0  0  0  0  0  0  0  0
   -5.5343   -1.2348    1.6630 H   0  0  0  0  0  0  0  0  0  0  0  0
   -5.4262    0.2697    2.6387 H   0  0  0  0  0  0  0  0  0  0  0  0
   -6.9629    0.9884   -0.7259 H   0  0  0  0  0  0  0  0  0  0  0  0
  -10.6046    0.4785    1.3754 H   0  0  0  0  0  0  0  0  0  0  0  0
    0.1607    2.8840   -1.3269 H   0  0  0  0  0  0  0  0  0  0  0  0
  1  2  1  0
  2  3  1  0
  2  4  1  0
  4  5  2  0
  5  6  1  0
  6  7  2  0
  7  8  1  0
  6  9  1  0
  9 10  1  0
 10 11  1  0
 10 12  1  0
 12 13  2  0
 12 14  1  0
 14 15  1  0
 15 16  1  0
 16 17  1  0
 16 18  1  0
 15 19  1  0
 19 20  2  0
 19 21  1  0
 21 22  1  0
 22 23  1  0
 23 24  1  0
 24 25  2  0
 25 26  1  0
 26 27  2  0
 27 28  1  0
 28 29  2  0
 22 30  1  0
 30 31  1  0
 31 32  1  0
 32 33  1  0
 33 34  1  0
 34 35  2  0
 35 36  1  0
 36 37  2  0
 37 38  1  0
 38 39  2  0
 32 40  1  0
 40 41  1  0
 41 42  2  0
 41 43  1  0
 43 44  1  0
 44 45  1  0
 45 46  2  0
 46 47  1  0
 47 48  2  0
 48 49  1  0
 31 50  1  0
  8  4  1  0
 29 24  1  0
 39 34  1  0
 49 45  1  0
  1 51  1  0
  1 52  1  0
  1 53  1  0
  2 54  1  0
  3 55  1  0
  3 56  1  0
  3 57  1  0
  7 58  1  0
  9 59  1  0
  9 60  1  0
 11 61  1  0
 11 62  1  0
 11 63  1  0
 14 64  1  0
 15 65  1  6
 16 66  1  0
 17 67  1  0
 17 68  1  0
 17 69  1  0
 18 70  1  0
 18 71  1  0
 18 72  1  0
 21 73  1  0
 22 74  1  1
 23 75  1  0
 23 76  1  0
 25 77  1  0
 26 78  1  0
 27 79  1  0
 28 80  1  0
 29 81  1  0
 30 82  1  0
 30 83  1  0
 31 84  1  6
 32 85  1  1
 33 86  1  0
 33 87  1  0
 35 88  1  0
 36 89  1  0
 37 90  1  0
 38 91  1  0
 39 92  1  0
 40 93  1  0
 44 94  1  0
 44 95  1  0
 46 96  1  0
 48 97  1  0
 50 98  1  0
M  END
$$$$
