
     RDKit          3D

 99103  0  0  0  0  0  0  0  0999 V2000
   -2.3839    4.0457    1.2870 C   0  0  0  0  0  0  0  0  0  0  0  0
   -3.6183    4.2481    0.3897 C   0  0  0  0  0  0  0  0  0  0  0  0
   -4.8499    4.7351    1.2007 C   0  0  0  0  0  0  0  0  0  0  0  0
   -3.2832    5.3206   -0.6541 C   0  0  0  0  0  0  0  0  0  0  0  0
   -3.9421    2.9748   -0.2727 N   0  0  0  0  0  0  0  0  0  0  0  0
   -4.3289    1.8377    0.5044 C   0  0  0  0  0  0  0  0  0  0  0  0
   -4.3856    1.8955    1.7661 O   0  0  0  0  0  0  0  0  0  0  0  0
   -4.7773    0.5899   -0.1798 C   0  0  2  0  0  0  0  0  0  0  0  0
   -5.3623   -0.4553    0.8128 C   0  0  0  0  0  0  0  0  0  0  0  0
   -6.1804   -1.4966    0.0509 C   0  0  2  0  0  0  0  0  0  0  0  0
   -6.2214   -2.8452    0.8225 C   0  0  0  0  0  0  0  0  0  0  0  0
   -5.1828   -3.8438    0.3266 C   0  0  0  0  0  0  0  0  0  0  0  0
   -5.2892   -4.1370   -1.1964 C   0  0  0  0  0  0  0  0  0  0  0  0
   -6.0510   -3.0307   -1.9699 C   0  0  0  0  0  0  0  0  0  0  0  0
   -5.7257   -1.6397   -1.4309 C   0  0  2  0  0  0  0  0  0  0  0  0
   -4.2297   -1.2849   -1.6911 C   0  0  0  0  0  0  0  0  0  0  0  0
   -3.7382   -0.0389   -1.0508 N   0  0  0  0  0  0  0  0  0  0  0  0
   -2.4668   -0.3046   -0.3135 C   0  0  0  0  0  0  0  0  0  0  0  0
   -1.3451   -0.7851   -1.2836 C   0  0  2  0  0  0  0  0  0  0  0  0
   -0.2731   -1.6945   -0.6346 C   0  0  2  0  0  0  0  0  0  0  0  0
   -0.8047   -2.8308    0.3079 C   0  0  0  0  0  0  0  0  0  0  0  0
    0.3211   -3.5946    0.8938 C   0  0  0  0  0  0  0  0  0  0  0  0
    0.9213   -4.5957    0.1373 C   0  0  0  0  0  0  0  0  0  0  0  0
    2.1611   -5.1023    0.5345 C   0  0  0  0  0  0  0  0  0  0  0  0
    2.7872   -4.5959    1.6700 C   0  0  0  0  0  0  0  0  0  0  0  0
    2.1523   -3.6347    2.4797 C   0  0  0  0  0  0  0  0  0  0  0  0
    0.9078   -3.1562    2.1040 C   0  0  0  0  0  0  0  0  0  0  0  0
    0.6891   -0.8494    0.0672 N   0  0  0  0  0  0  0  0  0  0  0  0
    2.0851   -0.9083   -0.2053 C   0  0  0  0  0  0  0  0  0  0  0  0
    2.5356   -1.9390   -0.7804 O   0  0  0  0  0  0  0  0  0  0  0  0
    2.9839    0.2622    0.1626 C   0  0  2  0  0  0  0  0  0  0  0  0
    2.6933    1.4507   -0.7552 C   0  0  0  0  0  0  0  0  0  0  0  0
    3.0918    1.3313   -2.2297 C   0  0  0  0  0  0  0  0  0  0  0  0
    3.1449    2.3711   -2.9669 O   0  0  0  0  0  0  0  0  0  0  0  0
    3.3281    0.0639   -2.8285 N   0  0  0  0  0  0  0  0  0  0  0  0
    4.3886   -0.1916    0.1469 N   0  0  0  0  0  0  0  0  0  0  0  0
    5.2264    0.1171    1.3035 C   0  0  0  0  0  0  0  0  0  0  0  0
    5.0322   -0.5419    2.3768 O   0  0  0  0  0  0  0  0  0  0  0  0
    6.2725    1.0677    1.2063 C   0  0  0  0  0  0  0  0  0  0  0  0
    7.5491    0.6185    0.9732 N   0  0  0  0  0  0  0  0  0  0  0  0
    8.5871    1.4705    0.7857 C   0  0  0  0  0  0  0  0  0  0  0  0
    9.8610    0.9319    0.4801 C   0  0  0  0  0  0  0  0  0  0  0  0
   10.9032    1.8189    0.2590 C   0  0  0  0  0  0  0  0  0  0  0  0
   10.7164    3.2144    0.3197 C   0  0  0  0  0  0  0  0  0  0  0  0
    9.4439    3.7260    0.6293 C   0  0  0  0  0  0  0  0  0  0  0  0
    8.3839    2.8584    0.8387 C   0  0  0  0  0  0  0  0  0  0  0  0
    7.0868    3.3676    1.0713 C   0  0  0  0  0  0  0  0  0  0  0  0
    6.0191    2.4624    1.2479 C   0  0  0  0  0  0  0  0  0  0  0  0
   -0.8022    0.3266   -1.9398 O   0  0  0  0  0  0  0  0  0  0  0  0
   -1.5150    3.7059    0.6702 H   0  0  0  0  0  0  0  0  0  0  0  0
   -2.5576    3.3056    2.1061 H   0  0  0  0  0  0  0  0  0  0  0  0
   -2.1592    5.0102    1.7872 H   0  0  0  0  0  0  0  0  0  0  0  0
   -5.7917    4.4852    0.6770 H   0  0  0  0  0  0  0  0  0  0  0  0
   -4.8172    5.8197    1.3865 H   0  0  0  0  0  0  0  0  0  0  0  0
   -4.9036    4.2628    2.1940 H   0  0  0  0  0  0  0  0  0  0  0  0
   -4.1724    5.5994   -1.2698 H   0  0  0  0  0  0  0  0  0  0  0  0
   -2.9434    6.2424   -0.1350 H   0  0  0  0  0  0  0  0  0  0  0  0
   -2.4635    4.9856   -1.3122 H   0  0  0  0  0  0  0  0  0  0  0  0
   -3.9147    2.8755   -1.3398 H   0  0  0  0  0  0  0  0  0  0  0  0
   -5.6225    0.9874   -0.8322 H   0  0  0  0  0  0  0  0  0  0  0  0
   -4.5658   -0.9204    1.4499 H   0  0  0  0  0  0  0  0  0  0  0  0
   -6.0352    0.0270    1.5634 H   0  0  0  0  0  0  0  0  0  0  0  0
   -7.2264   -1.0830    0.0427 H   0  0  0  0  0  0  0  0  0  0  0  0
   -6.0925   -2.6819    1.9399 H   0  0  0  0  0  0  0  0  0  0  0  0
   -7.2425   -3.2772    0.6886 H   0  0  0  0  0  0  0  0  0  0  0  0
   -5.3137   -4.8019    0.8773 H   0  0  0  0  0  0  0  0  0  0  0  0
   -4.1549   -3.4535    0.5909 H   0  0  0  0  0  0  0  0  0  0  0  0
   -4.2684   -4.2558   -1.6149 H   0  0  0  0  0  0  0  0  0  0  0  0
   -5.8091   -5.1113   -1.3773 H   0  0  0  0  0  0  0  0  0  0  0  0
   -7.1459   -3.1933   -1.8695 H   0  0  0  0  0  0  0  0  0  0  0  0
   -5.8158   -3.0666   -3.0588 H   0  0  0  0  0  0  0  0  0  0  0  0
   -6.3130   -0.9237   -2.0479 H   0  0  0  0  0  0  0  0  0  0  0  0
   -3.6404   -2.1938   -1.3453 H   0  0  0  0  0  0  0  0  0  0  0  0
   -4.0804   -1.2160   -2.8055 H   0  0  0  0  0  0  0  0  0  0  0  0
   -2.6871   -1.0557    0.4629 H   0  0  0  0  0  0  0  0  0  0  0  0
   -2.1067    0.5991    0.2803 H   0  0  0  0  0  0  0  0  0  0  0  0
   -1.7585   -1.4409   -2.0689 H   0  0  0  0  0  0  0  0  0  0  0  0
    0.2527   -2.2326   -1.4646 H   0  0  0  0  0  0  0  0  0  0  0  0
   -1.5170   -3.5010   -0.2535 H   0  0  0  0  0  0  0  0  0  0  0  0
   -1.3220   -2.4290    1.1757 H   0  0  0  0  0  0  0  0  0  0  0  0
    0.4922   -4.9218   -0.8096 H   0  0  0  0  0  0  0  0  0  0  0  0
    2.6366   -5.8620   -0.0699 H   0  0  0  0  0  0  0  0  0  0  0  0
    3.7538   -4.9559    1.9736 H   0  0  0  0  0  0  0  0  0  0  0  0
    2.6297   -3.2364    3.3776 H   0  0  0  0  0  0  0  0  0  0  0  0
    0.4458   -2.3402    2.6584 H   0  0  0  0  0  0  0  0  0  0  0  0
    0.3608   -0.1745    0.7890 H   0  0  0  0  0  0  0  0  0  0  0  0
    2.6790    0.5510    1.1994 H   0  0  0  0  0  0  0  0  0  0  0  0
    3.2419    2.3352   -0.3199 H   0  0  0  0  0  0  0  0  0  0  0  0
    1.5984    1.7055   -0.7011 H   0  0  0  0  0  0  0  0  0  0  0  0
    3.0296   -0.0914   -3.8250 H   0  0  0  0  0  0  0  0  0  0  0  0
    4.0467   -0.6001   -2.4313 H   0  0  0  0  0  0  0  0  0  0  0  0
    4.5717   -1.2397    0.0589 H   0  0  0  0  0  0  0  0  0  0  0  0
   10.0073   -0.1567    0.4026 H   0  0  0  0  0  0  0  0  0  0  0  0
   11.9023    1.4352    0.0103 H   0  0  0  0  0  0  0  0  0  0  0  0
   11.5419    3.8984    0.1780 H   0  0  0  0  0  0  0  0  0  0  0  0
    9.3035    4.8195    0.6791 H   0  0  0  0  0  0  0  0  0  0  0  0
    6.8754    4.4144    1.0840 H   0  0  0  0  0  0  0  0  0  0  0  0
    5.0005    2.8310    1.3956 H   0  0  0  0  0  0  0  0  0  0  0  0
   -0.4452    0.9100   -1.2432 H   0  0  0  0  0  0  0  0  0  0  0  0
  1  2  1  0
  2  3  1  0
  2  4  1  0
  2  5  1  0
  5  6  1  0
  6  7  2  0
  6  8  1  0
  8  9  1  0
  9 10  1  0
 10 11  1  0
 11 12  1  0
 12 13  1  0
 13 14  1  0
 14 15  1  0
 15 16  1  0
 16 17  1  0
 17 18  1  0
 18 19  1  0
 19 20  1  0
 20 21  1  0
 21 22  1  0
 22 23  2  0
 23 24  1  0
 24 25  2  0
 25 26  1  0
 26 27  2  0
 20 28  1  0
 28 29  1  0
 29 30  2  0
 29 31  1  0
 31 32  1  0
 32 33  1  0
 33 34  2  0
 33 35  1  0
 31 36  1  0
 36 37  1  0
 37 38  2  0
 37 39  1  0
 39 40  2  0
 40 41  1  0
 41 42  2  0
 42 43  1  0
 43 44  2  0
 44 45  1  0
 45 46  2  0
 46 47  1  0
 47 48  2  0
 19 49  1  0
 17  8  1  0
 15 10  1  0
 27 22  1  0
 48 39  1  0
 46 41  1  0
  1 50  1  0
  1 51  1  0
  1 52  1  0
  3 53  1  0
  3 54  1  0
  3 55  1  0
  4 56  1  0
  4 57  1  0
  4 58  1  0
  5 59  1  0
  8 60  1  6
  9 61  1  0
  9 62  1  0
 10 63  1  6
 11 64  1  0
 11 65  1  0
 12 66  1  0
 12 67  1  0
 13 68  1  0
 13 69  1  0
 14 70  1  0
 14 71  1  0
 15 72  1  6
 16 73  1  0
 16 74  1  0
 18 75  1  0
 18 76  1  0
 19 77  1  6
 20 78  1  6
 21 79  1  0
 21 80  1  0
 23 81  1  0
 24 82  1  0
 25 83  1  0
 26 84  1  0
 27 85  1  0
 28 86  1  0
 31 87  1  1
 32 88  1  0
 32 89  1  0
 35 90  1  0
 35 91  1  0
 36 92  1  0
 42 93  1  0
 43 94  1  0
 44 95  1  0
 45 96  1  0
 47 97  1  0
 48 98  1  0
 49 99  1  0
M  END
$$$$

     RDKit          3D

 94 97  0  0  0  0  0  0  0  0999 V2000
    8.0266    2.8885   -2.2816 C   0  0  0  0  0  0  0  0  0  0  0  0
    7.5710    2.6498   -0.8675 C   0  0  0  0  0  0  0  0  0  0  0  0
    6.2007    2.5526   -0.5171 C   0  0  0  0  0  0  0  0  0  0  0  0
    5.8347    2.4880    0.8450 C   0  0  0  0  0  0  0  0  0  0  0  0
    6.8300    2.4127    1.8304 C   0  0  0  0  0  0  0  0  0  0  0  0
    8.1784    2.4478    1.4767 C   0  0  0  0  0  0  0  0  0  0  0  0
    8.5468    2.5746    0.1385 C   0  0  0  0  0  0  0  0  0  0  0  0
    4.3922    2.4096    1.2596 C   0  0  0  0  0  0  0  0  0  0  0  0
    5.1903    2.5276   -1.4901 O   0  0  0  0  0  0  0  0  0  0  0  0
    5.1513    1.5880   -2.5632 C   0  0  0  0  0  0  0  0  0  0  0  0
    3.9319    0.7333   -2.4317 C   0  0  0  0  0  0  0  0  0  0  0  0
    3.0269    0.7996   -3.3070 O   0  0  0  0  0  0  0  0  0  0  0  0
    3.8023   -0.1568   -1.3141 N   0  0  0  0  0  0  0  0  0  0  0  0
    2.5925   -0.9460   -1.0490 C   0  0  1  0  0  0  0  0  0  0  0  0
    3.0389   -2.3746   -0.6466 C   0  0  0  0  0  0  0  0  0  0  0  0
    1.9324   -3.4022   -0.6558 C   0  0  0  0  0  0  0  0  0  0  0  0
    1.6321   -4.1259    0.5124 C   0  0  0  0  0  0  0  0  0  0  0  0
    0.6002   -5.0698    0.5134 C   0  0  0  0  0  0  0  0  0  0  0  0
   -0.1299   -5.3096   -0.6535 C   0  0  0  0  0  0  0  0  0  0  0  0
    0.1780   -4.6157   -1.8261 C   0  0  0  0  0  0  0  0  0  0  0  0
    1.2129   -3.6742   -1.8331 C   0  0  0  0  0  0  0  0  0  0  0  0
    1.7439   -0.2225    0.0402 C   0  0  2  0  0  0  0  0  0  0  0  0
    0.3064   -0.7879    0.1615 C   0  0  0  0  0  0  0  0  0  0  0  0
   -0.6504    0.0754    1.0120 C   0  0  2  0  0  0  0  0  0  0  0  0
   -0.1716    0.1974    2.4744 C   0  0  0  0  0  0  0  0  0  0  0  0
   -1.1773    0.9291    3.3314 C   0  0  0  0  0  0  0  0  0  0  0  0
   -1.4355    2.2938    3.1149 C   0  0  0  0  0  0  0  0  0  0  0  0
   -2.3910    2.9620    3.8863 C   0  0  0  0  0  0  0  0  0  0  0  0
   -3.0850    2.2783    4.8880 C   0  0  0  0  0  0  0  0  0  0  0  0
   -2.8268    0.9243    5.1171 C   0  0  0  0  0  0  0  0  0  0  0  0
   -1.8776    0.2501    4.3421 C   0  0  0  0  0  0  0  0  0  0  0  0
   -1.9807   -0.5423    0.9796 N   0  0  0  0  0  0  0  0  0  0  0  0
   -3.1336    0.1181    0.4366 C   0  0  0  0  0  0  0  0  0  0  0  0
   -3.1161    1.3688    0.2724 O   0  0  0  0  0  0  0  0  0  0  0  0
   -4.4041   -0.6631    0.1654 C   0  0  2  0  0  0  0  0  0  0  0  0
   -4.1684   -2.0234   -0.5710 C   0  0  0  0  0  0  0  0  0  0  0  0
   -5.4841   -2.7837   -0.7860 C   0  0  0  0  0  0  0  0  0  0  0  0
   -3.3946   -1.9246   -1.8952 C   0  0  0  0  0  0  0  0  0  0  0  0
   -5.4463    0.1752   -0.4781 N   0  0  0  0  0  0  0  0  0  0  0  0
   -6.7515    0.2951    0.2018 C   0  0  0  0  0  0  0  0  0  0  0  0
   -7.5941    1.4584   -0.3368 C   0  0  0  0  0  0  0  0  0  0  0  0
   -7.6992    1.3744   -1.8572 C   0  0  0  0  0  0  0  0  0  0  0  0
   -6.3667    1.4006   -2.4449 N   0  0  0  0  0  0  0  0  0  0  0  0
   -5.2545    0.8075   -1.7666 C   0  0  0  0  0  0  0  0  0  0  0  0
   -4.1070    0.9003   -2.2775 O   0  0  0  0  0  0  0  0  0  0  0  0
    1.6957    1.1583   -0.2286 O   0  0  0  0  0  0  0  0  0  0  0  0
    7.2120    3.2878   -2.9187 H   0  0  0  0  0  0  0  0  0  0  0  0
    8.8437    3.6405   -2.2947 H   0  0  0  0  0  0  0  0  0  0  0  0
    8.4091    1.9422   -2.7165 H   0  0  0  0  0  0  0  0  0  0  0  0
    6.5597    2.3224    2.8761 H   0  0  0  0  0  0  0  0  0  0  0  0
    8.9411    2.3910    2.2427 H   0  0  0  0  0  0  0  0  0  0  0  0
    9.5989    2.6347   -0.1151 H   0  0  0  0  0  0  0  0  0  0  0  0
    4.2423    2.9051    2.2438 H   0  0  0  0  0  0  0  0  0  0  0  0
    4.0879    1.3459    1.3469 H   0  0  0  0  0  0  0  0  0  0  0  0
    3.7345    2.9210    0.5244 H   0  0  0  0  0  0  0  0  0  0  0  0
    5.1217    2.1448   -3.5242 H   0  0  0  0  0  0  0  0  0  0  0  0
    6.0476    0.9297   -2.5631 H   0  0  0  0  0  0  0  0  0  0  0  0
    4.5652   -0.1626   -0.5985 H   0  0  0  0  0  0  0  0  0  0  0  0
    1.9938   -1.0113   -1.9826 H   0  0  0  0  0  0  0  0  0  0  0  0
    3.8129   -2.7210   -1.3657 H   0  0  0  0  0  0  0  0  0  0  0  0
    3.5319   -2.3340    0.3497 H   0  0  0  0  0  0  0  0  0  0  0  0
    2.1841   -3.9488    1.4266 H   0  0  0  0  0  0  0  0  0  0  0  0
    0.3655   -5.6125    1.4200 H   0  0  0  0  0  0  0  0  0  0  0  0
   -0.9272   -6.0411   -0.6511 H   0  0  0  0  0  0  0  0  0  0  0  0
   -0.3805   -4.8114   -2.7323 H   0  0  0  0  0  0  0  0  0  0  0  0
    1.4504   -3.1593   -2.7545 H   0  0  0  0  0  0  0  0  0  0  0  0
    2.2561   -0.3564    1.0179 H   0  0  0  0  0  0  0  0  0  0  0  0
   -0.1290   -0.8897   -0.8570 H   0  0  0  0  0  0  0  0  0  0  0  0
    0.3394   -1.7946    0.6183 H   0  0  0  0  0  0  0  0  0  0  0  0
   -0.6930    1.0931    0.5652 H   0  0  0  0  0  0  0  0  0  0  0  0
    0.0145   -0.8207    2.8828 H   0  0  0  0  0  0  0  0  0  0  0  0
    0.7897    0.7525    2.5153 H   0  0  0  0  0  0  0  0  0  0  0  0
   -0.9034    2.8363    2.3431 H   0  0  0  0  0  0  0  0  0  0  0  0
   -2.5948    4.0101    3.7066 H   0  0  0  0  0  0  0  0  0  0  0  0
   -3.8235    2.7971    5.4865 H   0  0  0  0  0  0  0  0  0  0  0  0
   -3.3650    0.3966    5.8933 H   0  0  0  0  0  0  0  0  0  0  0  0
   -1.6963   -0.8020    4.5254 H   0  0  0  0  0  0  0  0  0  0  0  0
   -2.0824   -1.5084    1.3635 H   0  0  0  0  0  0  0  0  0  0  0  0
   -4.7645   -0.9473    1.1791 H   0  0  0  0  0  0  0  0  0  0  0  0
   -3.5569   -2.6643    0.1009 H   0  0  0  0  0  0  0  0  0  0  0  0
   -5.2772   -3.7964   -1.1945 H   0  0  0  0  0  0  0  0  0  0  0  0
   -6.1398   -2.2456   -1.5020 H   0  0  0  0  0  0  0  0  0  0  0  0
   -6.0221   -2.9034    0.1786 H   0  0  0  0  0  0  0  0  0  0  0  0
   -2.5039   -1.2707   -1.7936 H   0  0  0  0  0  0  0  0  0  0  0  0
   -3.0356   -2.9341   -2.1898 H   0  0  0  0  0  0  0  0  0  0  0  0
   -4.0432   -1.5516   -2.7141 H   0  0  0  0  0  0  0  0  0  0  0  0
   -7.3170   -0.6532    0.0806 H   0  0  0  0  0  0  0  0  0  0  0  0
   -6.5963    0.4618    1.2902 H   0  0  0  0  0  0  0  0  0  0  0  0
   -8.6121    1.4183    0.1082 H   0  0  0  0  0  0  0  0  0  0  0  0
   -7.1231    2.4249   -0.0479 H   0  0  0  0  0  0  0  0  0  0  0  0
   -8.2912    2.2338   -2.2378 H   0  0  0  0  0  0  0  0  0  0  0  0
   -8.2122    0.4324   -2.1487 H   0  0  0  0  0  0  0  0  0  0  0  0
   -6.2086    1.9249   -3.3338 H   0  0  0  0  0  0  0  0  0  0  0  0
    1.2268    1.2763   -1.0971 H   0  0  0  0  0  0  0  0  0  0  0  0
  1  2  1  0
  2  3  2  0
  3  4  1  0
  4  5  2  0
  5  6  1  0
  6  7  2  0
  4  8  1  0
  3  9  1  0
  9 10  1  0
 10 11  1  0
 11 12  2  0
 11 13  1  0
 13 14  1  0
 14 15  1  0
 15 16  1  0
 16 17  2  0
 17 18  1  0
 18 19  2  0
 19 20  1  0
 20 21  2  0
 14 22  1  0
 22 23  1  0
 23 24  1  0
 24 25  1  0
 25 26  1  0
 26 27  2  0
 27 28  1  0
 28 29  2  0
 29 30  1  0
 30 31  2  0
 24 32  1  0
 32 33  1  0
 33 34  2  0
 33 35  1  0
 35 36  1  0
 36 37  1  0
 36 38  1  0
 35 39  1  0
 39 40  1  0
 40 41  1  0
 41 42  1  0
 42 43  1  0
 43 44  1  0
 44 45  2  0
 22 46  1  0
  7  2  1  0
 21 16  1  0
 31 26  1  0
 44 39  1  0
  1 47  1  0
  1 48  1  0
  1 49  1  0
  5 50  1  0
  6 51  1  0
  7 52  1  0
  8 53  1  0
  8 54  1  0
  8 55  1  0
 10 56  1  0
 10 57  1  0
 13 58  1  0
 14 59  1  6
 15 60  1  0
 15 61  1  0
 17 62  1  0
 18 63  1  0
 19 64  1  0
 20 65  1  0
 21 66  1  0
 22 67  1  1
 23 68  1  0
 23 69  1  0
 24 70  1  6
 25 71  1  0
 25 72  1  0
 27 73  1  0
 28 74  1  0
 29 75  1  0
 30 76  1  0
 31 77  1  0
 32 78  1  0
 35 79  1  1
 36 80  1  0
 37 81  1  0
 37 82  1  0
 37 83  1  0
 38 84  1  0
 38 85  1  0
 38 86  1  0
 40 87  1  0
 40 88  1  0
 41 89  1  0
 41 90  1  0
 42 91  1  0
 42 92  1  0
 43 93  1  0
 46 94  1  0
M  END
$$$$

     RDKit          3D

 75 78  0  0  0  0  0  0  0  0999 V2000
   -2.2301   -1.3270    3.6515 C   0  0  0  0  0  0  0  0  0  0  0  0
   -2.8513   -0.8588    2.3372 C   0  0  0  0  0  0  0  0  0  0  0  0
   -1.9440    0.1661    1.6304 C   0  0  0  0  0  0  0  0  0  0  0  0
   -2.4005    0.5222    0.1794 C   0  0  1  0  0  0  0  0  0  0  0  0
   -1.2888    1.3516   -0.5189 C   0  0  0  0  0  0  0  0  0  0  0  0
   -0.0516    0.5114   -0.7595 C   0  0  0  0  0  0  0  0  0  0  0  0
   -0.1553   -0.7959   -1.0979 C   0  0  0  0  0  0  0  0  0  0  0  0
   -1.5242   -1.3957   -1.1077 C   0  0  0  0  0  0  0  0  0  0  0  0
   -1.7471   -2.5327   -1.5996 O   0  0  0  0  0  0  0  0  0  0  0  0
   -2.5958   -0.6807   -0.5685 O   0  0  0  0  0  0  0  0  0  0  0  0
    1.1187   -1.6377   -1.2422 C   0  0  2  0  0  0  0  0  0  0  0  0
    1.0676   -2.7888   -2.2718 C   0  0  0  0  0  0  0  0  0  0  0  0
    0.7206   -2.2984   -3.6807 C   0  0  0  0  0  0  0  0  0  0  0  0
    1.5628   -2.1584    0.1147 C   0  0  0  0  0  0  0  0  0  0  0  0
    2.8578   -1.8719    0.5857 C   0  0  0  0  0  0  0  0  0  0  0  0
    3.2795   -2.3206    1.8492 C   0  0  0  0  0  0  0  0  0  0  0  0
    2.3864   -3.0400    2.6525 C   0  0  0  0  0  0  0  0  0  0  0  0
    1.1033   -3.3409    2.1908 C   0  0  0  0  0  0  0  0  0  0  0  0
    0.6971   -2.9198    0.9238 C   0  0  0  0  0  0  0  0  0  0  0  0
    4.6054   -2.0469    2.3345 N   0  0  0  0  0  0  0  0  0  0  0  0
    5.9833   -1.8893    1.2903 S   0  0  0  0  0  6  0  0  0  0  0  0
    5.8794   -2.8875    0.1694 O   0  0  0  0  0  0  0  0  0  0  0  0
    7.2276   -2.1880    2.0750 O   0  0  0  0  0  0  0  0  0  0  0  0
    6.0957   -0.2511    0.6559 C   0  0  0  0  0  0  0  0  0  0  0  0
    6.4058    0.7708    1.4983 N   0  0  0  0  0  0  0  0  0  0  0  0
    6.5269    2.0538    1.0617 C   0  0  0  0  0  0  0  0  0  0  0  0
    6.3398    2.3605   -0.2946 C   0  0  0  0  0  0  0  0  0  0  0  0
    5.9961    1.3195   -1.1732 C   0  0  0  0  0  0  0  0  0  0  0  0
    5.8836    0.0113   -0.7014 C   0  0  0  0  0  0  0  0  0  0  0  0
    6.4584    3.7889   -0.7690 C   0  0  0  0  0  0  0  0  0  0  0  0
    5.3675    4.5116   -0.3240 F   0  0  0  0  0  0  0  0  0  0  0  0
    6.5051    3.8608   -2.1519 F   0  0  0  0  0  0  0  0  0  0  0  0
    7.6126    4.3604   -0.2646 F   0  0  0  0  0  0  0  0  0  0  0  0
    1.2037    1.1063   -0.6172 O   0  0  0  0  0  0  0  0  0  0  0  0
   -3.7437    1.3022    0.2268 C   0  0  0  0  0  0  0  0  0  0  0  0
   -4.2606    1.7530   -1.1533 C   0  0  0  0  0  0  0  0  0  0  0  0
   -5.7280    2.0989   -1.1061 C   0  0  0  0  0  0  0  0  0  0  0  0
   -6.6613    1.3419   -1.8371 C   0  0  0  0  0  0  0  0  0  0  0  0
   -8.0207    1.6690   -1.7966 C   0  0  0  0  0  0  0  0  0  0  0  0
   -8.4577    2.7531   -1.0286 C   0  0  0  0  0  0  0  0  0  0  0  0
   -7.5361    3.5126   -0.3002 C   0  0  0  0  0  0  0  0  0  0  0  0
   -6.1760    3.1904   -0.3403 C   0  0  0  0  0  0  0  0  0  0  0  0
   -2.0663   -0.4620    4.3266 H   0  0  0  0  0  0  0  0  0  0  0  0
   -1.2599   -1.8294    3.4648 H   0  0  0  0  0  0  0  0  0  0  0  0
   -2.9098   -2.0486    4.1508 H   0  0  0  0  0  0  0  0  0  0  0  0
   -3.8382   -0.4072    2.5643 H   0  0  0  0  0  0  0  0  0  0  0  0
   -3.0048   -1.7491    1.6897 H   0  0  0  0  0  0  0  0  0  0  0  0
   -0.9160   -0.2548    1.6044 H   0  0  0  0  0  0  0  0  0  0  0  0
   -1.8922    1.0916    2.2471 H   0  0  0  0  0  0  0  0  0  0  0  0
   -1.0399    2.2490    0.0895 H   0  0  0  0  0  0  0  0  0  0  0  0
   -1.6241    1.6960   -1.5193 H   0  0  0  0  0  0  0  0  0  0  0  0
    1.9152   -0.9673   -1.6349 H   0  0  0  0  0  0  0  0  0  0  0  0
    2.0768   -3.2586   -2.3218 H   0  0  0  0  0  0  0  0  0  0  0  0
    0.3708   -3.5926   -1.9604 H   0  0  0  0  0  0  0  0  0  0  0  0
    0.8186   -3.1378   -4.3988 H   0  0  0  0  0  0  0  0  0  0  0  0
   -0.3202   -1.9237   -3.7237 H   0  0  0  0  0  0  0  0  0  0  0  0
    1.4086   -1.4850   -3.9916 H   0  0  0  0  0  0  0  0  0  0  0  0
    3.5279   -1.2892   -0.0273 H   0  0  0  0  0  0  0  0  0  0  0  0
    2.6883   -3.3818    3.6353 H   0  0  0  0  0  0  0  0  0  0  0  0
    0.4235   -3.9030    2.8175 H   0  0  0  0  0  0  0  0  0  0  0  0
   -0.3021   -3.1719    0.5891 H   0  0  0  0  0  0  0  0  0  0  0  0
    4.7839   -2.0894    3.3614 H   0  0  0  0  0  0  0  0  0  0  0  0
    6.7724    2.8343    1.7723 H   0  0  0  0  0  0  0  0  0  0  0  0
    5.8175    1.5114   -2.2212 H   0  0  0  0  0  0  0  0  0  0  0  0
    5.6277   -0.7826   -1.3911 H   0  0  0  0  0  0  0  0  0  0  0  0
    1.3001    2.0926   -0.4060 H   0  0  0  0  0  0  0  0  0  0  0  0
   -4.5189    0.6493    0.6839 H   0  0  0  0  0  0  0  0  0  0  0  0
   -3.6340    2.1938    0.8828 H   0  0  0  0  0  0  0  0  0  0  0  0
   -4.0856    0.9485   -1.9028 H   0  0  0  0  0  0  0  0  0  0  0  0
   -3.7031    2.6520   -1.4906 H   0  0  0  0  0  0  0  0  0  0  0  0
   -6.3369    0.4979   -2.4356 H   0  0  0  0  0  0  0  0  0  0  0  0
   -8.7333    1.0846   -2.3653 H   0  0  0  0  0  0  0  0  0  0  0  0
   -9.5105    3.0051   -1.0034 H   0  0  0  0  0  0  0  0  0  0  0  0
   -7.8757    4.3530    0.2928 H   0  0  0  0  0  0  0  0  0  0  0  0
   -5.4717    3.7883    0.2261 H   0  0  0  0  0  0  0  0  0  0  0  0
  1  2  1  0
  2  3  1  0
  4  3  1  1
  4  5  1  0
  5  6  1  0
  6  7  2  0
  7  8  1  0
  8  9  2  0
  8 10  1  0
  7 11  1  0
 11 12  1  0
 12 13  1  0
 11 14  1  0
 14 15  2  0
 15 16  1  0
 16 17  2  0
 17 18  1  0
 18 19  2  0
 16 20  1  0
 20 21  1  0
 21 22  2  0
 21 23  2  0
 21 24  1  0
 24 25  2  0
 25 26  1  0
 26 27  2  0
 27 28  1  0
 28 29  2  0
 27 30  1  0
 30 31  1  0
 30 32  1  0
 30 33  1  0
  6 34  1  0
  4 35  1  0
 35 36  1  0
 36 37  1  0
 37 38  2  0
 38 39  1  0
 39 40  2  0
 40 41  1  0
 41 42  2  0
 10  4  1  0
 19 14  1  0
 29 24  1  0
 42 37  1  0
  1 43  1  0
  1 44  1  0
  1 45  1  0
  2 46  1  0
  2 47  1  0
  3 48  1  0
  3 49  1  0
  5 50  1  0
  5 51  1  0
 11 52  1  6
 12 53  1  0
 12 54  1  0
 13 55  1  0
 13 56  1  0
 13 57  1  0
 15 58  1  0
 17 59  1  0
 18 60  1  0
 19 61  1  0
 20 62  1  0
 26 63  1  0
 28 64  1  0
 29 65  1  0
 34 66  1  0
 35 67  1  0
 35 68  1  0
 36 69  1  0
 36 70  1  0
 38 71  1  0
 39 72  1  0
 40 73  1  0
 41 74  1  0
 42 75  1  0
M  END
$$$$

     RDKit          3D

 75 78  0  0  0  0  0  0  0  0999 V2000
   -4.8295    2.6628    0.3623 C   0  0  0  0  0  0  0  0  0  0  0  0
   -3.5775    1.8069    0.1376 C   0  0  0  0  0  0  0  0  0  0  0  0
   -3.4821    0.7169    1.2154 C   0  0  0  0  0  0  0  0  0  0  0  0
   -3.5958    1.1883   -1.2730 C   0  0  0  0  0  0  0  0  0  0  0  0
   -2.3044    0.5309   -1.5713 N   0  0  0  0  0  0  0  0  0  0  0  0
   -1.3440    1.4567   -2.2147 C   0  0  0  0  0  0  0  0  0  0  0  0
    0.1003    1.1442   -1.7635 C   0  0  2  0  0  0  0  0  0  0  0  0
    0.3604    1.4664   -0.2681 C   0  0  2  0  0  0  0  0  0  0  0  0
    0.3584    2.9730    0.1048 C   0  0  0  0  0  0  0  0  0  0  0  0
    1.4972    3.7762   -0.4794 C   0  0  0  0  0  0  0  0  0  0  0  0
    2.7582    3.7794    0.1420 C   0  0  0  0  0  0  0  0  0  0  0  0
    3.8042    4.5416   -0.3864 C   0  0  0  0  0  0  0  0  0  0  0  0
    3.5968    5.3194   -1.5283 C   0  0  0  0  0  0  0  0  0  0  0  0
    2.3397    5.3449   -2.1369 C   0  0  0  0  0  0  0  0  0  0  0  0
    1.2900    4.5860   -1.6100 C   0  0  0  0  0  0  0  0  0  0  0  0
    1.6174    0.8364    0.1517 N   0  0  0  0  0  0  0  0  0  0  0  0
    1.6907   -0.2025    1.1349 C   0  0  0  0  0  0  0  0  0  0  0  0
    0.6425   -0.6470    1.6802 O   0  0  0  0  0  0  0  0  0  0  0  0
    2.9421   -0.7224    1.4790 O   0  0  0  0  0  0  0  0  0  0  0  0
    3.1115   -1.8383    2.3550 C   0  0  1  0  0  0  0  0  0  0  0  0
    2.7241   -3.1480    1.6946 C   0  0  0  0  0  0  0  0  0  0  0  0
    3.5362   -4.1751    2.2154 O   0  0  0  0  0  0  0  0  0  0  0  0
    4.6718   -3.5733    2.8050 C   0  0  2  0  0  0  0  0  0  0  0  0
    4.5578   -2.0657    2.7166 C   0  0  1  0  0  0  0  0  0  0  0  0
    5.5648   -1.7051    1.6498 C   0  0  0  0  0  0  0  0  0  0  0  0
    6.5366   -2.8587    1.7209 C   0  0  0  0  0  0  0  0  0  0  0  0
    5.8355   -4.0071    2.1319 O   0  0  0  0  0  0  0  0  0  0  0  0
    1.0194    1.8224   -2.5791 O   0  0  0  0  0  0  0  0  0  0  0  0
   -2.5825   -0.8740   -2.5792 S   0  0  0  0  0  6  0  0  0  0  0  0
   -3.5020   -0.5101   -3.7131 O   0  0  0  0  0  0  0  0  0  0  0  0
   -1.2940   -1.3946   -3.1525 O   0  0  0  0  0  0  0  0  0  0  0  0
   -3.3027   -2.1364   -1.5867 C   0  0  0  0  0  0  0  0  0  0  0  0
   -2.6181   -2.5953   -0.4540 C   0  0  0  0  0  0  0  0  0  0  0  0
   -3.1811   -3.5865    0.3553 C   0  0  0  0  0  0  0  0  0  0  0  0
   -4.4353   -4.1267    0.0386 C   0  0  0  0  0  0  0  0  0  0  0  0
   -5.1225   -3.6628   -1.0923 C   0  0  0  0  0  0  0  0  0  0  0  0
   -4.5591   -2.6720   -1.9020 C   0  0  0  0  0  0  0  0  0  0  0  0
   -5.0101   -5.1445    0.8619 N   0  0  0  0  0  0  0  0  0  0  0  0
   -4.8772    3.4779   -0.3903 H   0  0  0  0  0  0  0  0  0  0  0  0
   -5.7484    2.0431    0.2808 H   0  0  0  0  0  0  0  0  0  0  0  0
   -4.7998    3.1286    1.3704 H   0  0  0  0  0  0  0  0  0  0  0  0
   -2.6949    2.4715    0.2331 H   0  0  0  0  0  0  0  0  0  0  0  0
   -3.4420    1.1794    2.2248 H   0  0  0  0  0  0  0  0  0  0  0  0
   -4.3618    0.0388    1.1674 H   0  0  0  0  0  0  0  0  0  0  0  0
   -2.5619    0.1114    1.0802 H   0  0  0  0  0  0  0  0  0  0  0  0
   -3.8296    1.9645   -2.0376 H   0  0  0  0  0  0  0  0  0  0  0  0
   -4.4388    0.4609   -1.3056 H   0  0  0  0  0  0  0  0  0  0  0  0
   -1.4134    1.3868   -3.3238 H   0  0  0  0  0  0  0  0  0  0  0  0
   -1.5711    2.5164   -1.9739 H   0  0  0  0  0  0  0  0  0  0  0  0
    0.2673    0.0501   -1.8804 H   0  0  0  0  0  0  0  0  0  0  0  0
   -0.4762    1.0158    0.3045 H   0  0  0  0  0  0  0  0  0  0  0  0
   -0.6061    3.4358   -0.1807 H   0  0  0  0  0  0  0  0  0  0  0  0
    0.3998    3.0592    1.2129 H   0  0  0  0  0  0  0  0  0  0  0  0
    2.9305    3.1932    1.0362 H   0  0  0  0  0  0  0  0  0  0  0  0
    4.7746    4.5314    0.0927 H   0  0  0  0  0  0  0  0  0  0  0  0
    4.4080    5.9072   -1.9382 H   0  0  0  0  0  0  0  0  0  0  0  0
    2.1783    5.9539   -3.0171 H   0  0  0  0  0  0  0  0  0  0  0  0
    0.3210    4.6175   -2.0925 H   0  0  0  0  0  0  0  0  0  0  0  0
    2.5024    1.1014   -0.3361 H   0  0  0  0  0  0  0  0  0  0  0  0
    2.5211   -1.6940    3.2884 H   0  0  0  0  0  0  0  0  0  0  0  0
    2.8774   -3.0918    0.5928 H   0  0  0  0  0  0  0  0  0  0  0  0
    1.6551   -3.3787    1.8931 H   0  0  0  0  0  0  0  0  0  0  0  0
    4.7292   -3.8882    3.8707 H   0  0  0  0  0  0  0  0  0  0  0  0
    4.8224   -1.5805    3.6833 H   0  0  0  0  0  0  0  0  0  0  0  0
    5.1092   -1.6802    0.6350 H   0  0  0  0  0  0  0  0  0  0  0  0
    6.0629   -0.7346    1.8643 H   0  0  0  0  0  0  0  0  0  0  0  0
    7.3385   -2.6381    2.4599 H   0  0  0  0  0  0  0  0  0  0  0  0
    7.0036   -3.0392    0.7292 H   0  0  0  0  0  0  0  0  0  0  0  0
    1.0411    1.3469   -3.4507 H   0  0  0  0  0  0  0  0  0  0  0  0
   -1.6501   -2.1834   -0.1977 H   0  0  0  0  0  0  0  0  0  0  0  0
   -2.6418   -3.9343    1.2268 H   0  0  0  0  0  0  0  0  0  0  0  0
   -6.0927   -4.0710   -1.3478 H   0  0  0  0  0  0  0  0  0  0  0  0
   -5.1043   -2.3252   -2.7696 H   0  0  0  0  0  0  0  0  0  0  0  0
   -5.9580   -5.5300    0.6498 H   0  0  0  0  0  0  0  0  0  0  0  0
   -4.4893   -5.5288    1.6830 H   0  0  0  0  0  0  0  0  0  0  0  0
  1  2  1  0
  2  3  1  0
  2  4  1  0
  4  5  1  0
  5  6  1  0
  6  7  1  0
  7  8  1  0
  8  9  1  0
  9 10  1  0
 10 11  2  0
 11 12  1  0
 12 13  2  0
 13 14  1  0
 14 15  2  0
  8 16  1  0
 16 17  1  0
 17 18  2  0
 17 19  1  0
 19 20  1  0
 20 21  1  0
 21 22  1  0
 22 23  1  0
 23 24  1  0
 24 25  1  0
 25 26  1  0
 26 27  1  0
  7 28  1  0
  5 29  1  0
 29 30  2  0
 29 31  2  0
 29 32  1  0
 32 33  2  0
 33 34  1  0
 34 35  2  0
 35 36  1  0
 36 37  2  0
 35 38  1  0
 15 10  1  0
 24 20  1  0
 27 23  1  0
 37 32  1  0
  1 39  1  0
  1 40  1  0
  1 41  1  0
  2 42  1  0
  3 43  1  0
  3 44  1  0
  3 45  1  0
  4 46  1  0
  4 47  1  0
  6 48  1  0
  6 49  1  0
  7 50  1  1
  8 51  1  6
  9 52  1  0
  9 53  1  0
 11 54  1  0
 12 55  1  0
 13 56  1  0
 14 57  1  0
 15 58  1  0
 16 59  1  0
 20 60  1  6
 21 61  1  0
 21 62  1  0
 23 63  1  6
 24 64  1  6
 25 65  1  0
 25 66  1  0
 26 67  1  0
 26 68  1  0
 28 69  1  0
 33 70  1  0
 34 71  1  0
 36 72  1  0
 37 73  1  0
 38 74  1  0
 38 75  1  0
M  END
$$$$

     RDKit          3D

 70 72  0  0  0  0  0  0  0  0999 V2000
   -2.3012   -2.7482   -0.6308 C   0  0  0  0  0  0  0  0  0  0  0  0
   -3.2621   -1.8915    0.2069 C   0  0  0  0  0  0  0  0  0  0  0  0
   -4.6589   -1.8582   -0.4205 C   0  0  0  0  0  0  0  0  0  0  0  0
   -2.6999   -0.4780    0.5333 C   0  0  0  0  0  0  0  0  0  0  0  0
   -1.8462    0.0958   -0.5419 N   0  0  0  0  0  0  0  0  0  0  0  0
   -0.7788    0.9748   -0.0021 C   0  0  0  0  0  0  0  0  0  0  0  0
    0.5436    0.7783   -0.7809 C   0  0  2  0  0  0  0  0  0  0  0  0
    1.2185   -0.5968   -0.5073 C   0  0  2  0  0  0  0  0  0  0  0  0
    1.8559   -0.7239    0.8998 C   0  0  0  0  0  0  0  0  0  0  0  0
    2.5049   -2.0705    1.0993 C   0  0  0  0  0  0  0  0  0  0  0  0
    1.7137   -3.2204    1.2614 C   0  0  0  0  0  0  0  0  0  0  0  0
    2.3153   -4.4691    1.4486 C   0  0  0  0  0  0  0  0  0  0  0  0
    3.7086   -4.5787    1.4781 C   0  0  0  0  0  0  0  0  0  0  0  0
    4.5029   -3.4387    1.3266 C   0  0  0  0  0  0  0  0  0  0  0  0
    3.9056   -2.1883    1.1416 C   0  0  0  0  0  0  0  0  0  0  0  0
    2.1791   -0.9235   -1.5737 N   0  0  0  0  0  0  0  0  0  0  0  0
    3.4046   -0.2194   -1.8206 C   0  0  0  0  0  0  0  0  0  0  0  0
    4.0639   -0.4754   -2.8638 O   0  0  0  0  0  0  0  0  0  0  0  0
    3.8735    0.7293   -0.9053 O   0  0  0  0  0  0  0  0  0  0  0  0
    5.1132    1.4238   -1.0390 C   0  0  1  0  0  0  0  0  0  0  0  0
    5.2125    2.4599    0.0391 C   0  0  0  0  0  0  0  0  0  0  0  0
    5.8564    1.6972    1.1791 C   0  0  0  0  0  0  0  0  0  0  0  0
    6.6027    0.6206    0.6550 O   0  0  0  0  0  0  0  0  0  0  0  0
    6.2862    0.5090   -0.7152 C   0  0  0  0  0  0  0  0  0  0  0  0
    1.4234    1.8489   -0.5429 O   0  0  0  0  0  0  0  0  0  0  0  0
   -2.7794    0.9568   -1.7656 S   0  0  0  0  0  6  0  0  0  0  0  0
   -3.2665   -0.0253   -2.7932 O   0  0  0  0  0  0  0  0  0  0  0  0
   -1.9058    1.9486   -2.4843 O   0  0  0  0  0  0  0  0  0  0  0  0
   -4.1510    1.8502   -1.0914 C   0  0  0  0  0  0  0  0  0  0  0  0
   -5.4685    1.4136   -1.3044 C   0  0  0  0  0  0  0  0  0  0  0  0
   -6.5435    2.1075   -0.7392 C   0  0  0  0  0  0  0  0  0  0  0  0
   -6.3146    3.2569    0.0298 C   0  0  0  0  0  0  0  0  0  0  0  0
   -5.0017    3.7114    0.2193 C   0  0  0  0  0  0  0  0  0  0  0  0
   -3.9268    3.0132   -0.3394 C   0  0  0  0  0  0  0  0  0  0  0  0
   -7.4120    3.9656    0.6124 N   0  0  0  0  0  0  0  0  0  0  0  0
   -1.3397   -2.8689   -0.0943 H   0  0  0  0  0  0  0  0  0  0  0  0
   -2.1149   -2.2857   -1.6242 H   0  0  0  0  0  0  0  0  0  0  0  0
   -2.7297   -3.7611   -0.7916 H   0  0  0  0  0  0  0  0  0  0  0  0
   -3.3902   -2.4171    1.1821 H   0  0  0  0  0  0  0  0  0  0  0  0
   -4.6208   -1.5413   -1.4793 H   0  0  0  0  0  0  0  0  0  0  0  0
   -5.3306   -1.1790    0.1522 H   0  0  0  0  0  0  0  0  0  0  0  0
   -5.1033   -2.8784   -0.3939 H   0  0  0  0  0  0  0  0  0  0  0  0
   -2.1015   -0.6263    1.4600 H   0  0  0  0  0  0  0  0  0  0  0  0
   -3.5095    0.2201    0.8324 H   0  0  0  0  0  0  0  0  0  0  0  0
   -1.0739    2.0435   -0.0546 H   0  0  0  0  0  0  0  0  0  0  0  0
   -0.5807    0.8002    1.0752 H   0  0  0  0  0  0  0  0  0  0  0  0
    0.2939    0.8060   -1.8620 H   0  0  0  0  0  0  0  0  0  0  0  0
    0.4125   -1.3587   -0.5605 H   0  0  0  0  0  0  0  0  0  0  0  0
    1.0805   -0.5980    1.6843 H   0  0  0  0  0  0  0  0  0  0  0  0
    2.5972    0.0822    1.0727 H   0  0  0  0  0  0  0  0  0  0  0  0
    0.6338   -3.1476    1.2544 H   0  0  0  0  0  0  0  0  0  0  0  0
    1.7010   -5.3520    1.5743 H   0  0  0  0  0  0  0  0  0  0  0  0
    4.1728   -5.5457    1.6235 H   0  0  0  0  0  0  0  0  0  0  0  0
    5.5817   -3.5252    1.3529 H   0  0  0  0  0  0  0  0  0  0  0  0
    4.5353   -1.3167    1.0273 H   0  0  0  0  0  0  0  0  0  0  0  0
    1.9352   -1.7070   -2.2226 H   0  0  0  0  0  0  0  0  0  0  0  0
    5.1973    1.8810   -2.0501 H   0  0  0  0  0  0  0  0  0  0  0  0
    5.8785    3.2877   -0.2869 H   0  0  0  0  0  0  0  0  0  0  0  0
    4.2180    2.8723    0.3231 H   0  0  0  0  0  0  0  0  0  0  0  0
    5.0707    1.2938    1.8554 H   0  0  0  0  0  0  0  0  0  0  0  0
    6.5202    2.3656    1.7679 H   0  0  0  0  0  0  0  0  0  0  0  0
    7.1727    0.8161   -1.3120 H   0  0  0  0  0  0  0  0  0  0  0  0
    6.0592   -0.5487   -0.9609 H   0  0  0  0  0  0  0  0  0  0  0  0
    1.4690    1.9997    0.4361 H   0  0  0  0  0  0  0  0  0  0  0  0
   -5.6707    0.5391   -1.9062 H   0  0  0  0  0  0  0  0  0  0  0  0
   -7.5540    1.7509   -0.9040 H   0  0  0  0  0  0  0  0  0  0  0  0
   -4.8114    4.6057    0.8000 H   0  0  0  0  0  0  0  0  0  0  0  0
   -2.9232    3.3865   -0.1864 H   0  0  0  0  0  0  0  0  0  0  0  0
   -8.3934    3.6207    0.4998 H   0  0  0  0  0  0  0  0  0  0  0  0
   -7.2496    4.8306    1.1750 H   0  0  0  0  0  0  0  0  0  0  0  0
  1  2  1  0
  2  3  1  0
  2  4  1  0
  4  5  1  0
  5  6  1  0
  6  7  1  0
  7  8  1  0
  8  9  1  0
  9 10  1  0
 10 11  2  0
 11 12  1  0
 12 13  2  0
 13 14  1  0
 14 15  2  0
  8 16  1  0
 16 17  1  0
 17 18  2  0
 17 19  1  0
 19 20  1  0
 20 21  1  0
 21 22  1  0
 22 23  1  0
 23 24  1  0
  7 25  1  0
  5 26  1  0
 26 27  2  0
 26 28  2  0
 26 29  1  0
 29 30  2  0
 30 31  1  0
 31 32  2  0
 32 33  1  0
 33 34  2  0
 32 35  1  0
 15 10  1  0
 24 20  1  0
 34 29  1  0
  1 36  1  0
  1 37  1  0
  1 38  1  0
  2 39  1  0
  3 40  1  0
  3 41  1  0
  3 42  1  0
  4 43  1  0
  4 44  1  0
  6 45  1  0
  6 46  1  0
  7 47  1  1
  8 48  1  6
  9 49  1  0
  9 50  1  0
 11 51  1  0
 12 52  1  0
 13 53  1  0
 14 54  1  0
 15 55  1  0
 16 56  1  0
 20 57  1  6
 21 58  1  0
 21 59  1  0
 22 60  1  0
 22 61  1  0
 24 62  1  0
 24 63  1  0
 25 64  1  0
 30 65  1  0
 31 66  1  0
 33 67  1  0
 34 68  1  0
 35 69  1  0
 35 70  1  0
M  END
$$$$

     RDKit          3D

103105  0  0  0  0  0  0  0  0999 V2000
    2.9840   -0.9220    2.4288 C   0  0  0  0  0  0  0  0  0  0  0  0
    3.9608    0.2266    2.0884 C   0  0  0  0  0  0  0  0  0  0  0  0
    3.3908    1.5433    2.6634 C   0  0  0  0  0  0  0  0  0  0  0  0
    5.3094   -0.0702    2.7815 C   0  0  0  0  0  0  0  0  0  0  0  0
    4.1795    0.2925    0.5367 C   0  0  1  0  0  0  0  0  0  0  0  0
    2.9105    0.5539   -0.2413 C   0  0  0  0  0  0  0  0  0  0  0  0
    2.4413    1.7226   -0.3051 O   0  0  0  0  0  0  0  0  0  0  0  0
    2.2571   -0.5229   -0.9274 N   0  0  0  0  0  0  0  0  0  0  0  0
    1.2476   -0.3069   -1.9712 C   0  0  1  0  0  0  0  0  0  0  0  0
    1.7583   -0.8767   -3.3085 C   0  0  0  0  0  0  0  0  0  0  0  0
    3.0528   -0.2175   -3.7162 C   0  0  0  0  0  0  0  0  0  0  0  0
    4.2699   -0.9127   -3.6106 C   0  0  0  0  0  0  0  0  0  0  0  0
    5.4709   -0.2859   -3.9540 C   0  0  0  0  0  0  0  0  0  0  0  0
    5.4666    1.0369   -4.4037 C   0  0  0  0  0  0  0  0  0  0  0  0
    4.2607    1.7348   -4.5142 C   0  0  0  0  0  0  0  0  0  0  0  0
    3.0573    1.1118   -4.1723 C   0  0  0  0  0  0  0  0  0  0  0  0
   -0.1085   -0.9327   -1.5619 C   0  0  2  0  0  0  0  0  0  0  0  0
   -0.6633   -0.2537   -0.2734 C   0  0  0  0  0  0  0  0  0  0  0  0
   -2.0780   -0.5489    0.0507 N   0  0  0  0  0  0  0  0  0  0  0  0
   -3.0621    0.0940   -0.8382 C   0  0  0  0  0  0  0  0  0  0  0  0
   -3.1173    1.5768   -0.5825 C   0  0  0  0  0  0  0  0  0  0  0  0
   -3.5185    2.0566    0.6723 C   0  0  0  0  0  0  0  0  0  0  0  0
   -3.5746    3.4311    0.9194 C   0  0  0  0  0  0  0  0  0  0  0  0
   -3.2250    4.3536   -0.0858 C   0  0  0  0  0  0  0  0  0  0  0  0
   -2.8313    3.8657   -1.3452 C   0  0  0  0  0  0  0  0  0  0  0  0
   -2.7744    2.4903   -1.5902 C   0  0  0  0  0  0  0  0  0  0  0  0
   -3.2956    5.8185    0.1515 C   0  0  0  0  0  0  0  0  0  0  0  0
   -3.0862    6.3706    1.4296 C   0  0  0  0  0  0  0  0  0  0  0  0
   -3.1640    7.7541    1.6032 C   0  0  0  0  0  0  0  0  0  0  0  0
   -3.4443    8.5777    0.5128 C   0  0  0  0  0  0  0  0  0  0  0  0
   -3.6390    8.0027   -0.7430 C   0  0  0  0  0  0  0  0  0  0  0  0
   -3.5586    6.6537   -0.8944 N   0  0  0  0  0  0  0  0  0  0  0  0
   -2.3059   -1.9380    0.0883 N   0  0  0  0  0  0  0  0  0  0  0  0
   -2.4403   -2.5956    1.3539 C   0  0  0  0  0  0  0  0  0  0  0  0
   -2.1584   -1.9415    2.3951 O   0  0  0  0  0  0  0  0  0  0  0  0
   -2.7971   -4.0734    1.5114 C   0  0  2  0  0  0  0  0  0  0  0  0
   -3.5896   -4.8014    0.3480 C   0  0  0  0  0  0  0  0  0  0  0  0
   -4.8824   -4.0481   -0.0423 C   0  0  0  0  0  0  0  0  0  0  0  0
   -2.6921   -4.9925   -0.9159 C   0  0  0  0  0  0  0  0  0  0  0  0
   -4.0038   -6.2183    0.8274 C   0  0  0  0  0  0  0  0  0  0  0  0
   -3.4489   -4.2891    2.8174 N   0  0  0  0  0  0  0  0  0  0  0  0
   -4.5738   -3.5485    3.3160 C   0  0  0  0  0  0  0  0  0  0  0  0
   -5.0252   -2.5570    2.6795 O   0  0  0  0  0  0  0  0  0  0  0  0
   -5.1489   -3.9247    4.5325 O   0  0  0  0  0  0  0  0  0  0  0  0
   -6.2484   -3.2293    5.1078 C   0  0  0  0  0  0  0  0  0  0  0  0
    0.0131   -2.3283   -1.4147 O   0  0  0  0  0  0  0  0  0  0  0  0
    5.1838    1.3006    0.1697 N   0  0  0  0  0  0  0  0  0  0  0  0
    6.3766    0.9930   -0.5641 C   0  0  0  0  0  0  0  0  0  0  0  0
    6.6756   -0.2037   -0.8313 O   0  0  0  0  0  0  0  0  0  0  0  0
    7.2077    2.0366   -0.9793 O   0  0  0  0  0  0  0  0  0  0  0  0
    8.3959    1.8182   -1.7280 C   0  0  0  0  0  0  0  0  0  0  0  0
    1.9780   -0.7251    2.0033 H   0  0  0  0  0  0  0  0  0  0  0  0
    3.3525   -1.8870    2.0192 H   0  0  0  0  0  0  0  0  0  0  0  0
    2.8702   -1.0337    3.5290 H   0  0  0  0  0  0  0  0  0  0  0  0
    2.3877    1.7647    2.2443 H   0  0  0  0  0  0  0  0  0  0  0  0
    3.2787    1.4668    3.7667 H   0  0  0  0  0  0  0  0  0  0  0  0
    4.0634    2.4003    2.4581 H   0  0  0  0  0  0  0  0  0  0  0  0
    5.1727   -0.1854    3.8787 H   0  0  0  0  0  0  0  0  0  0  0  0
    6.0320    0.7569    2.6143 H   0  0  0  0  0  0  0  0  0  0  0  0
    5.7545   -1.0096    2.3877 H   0  0  0  0  0  0  0  0  0  0  0  0
    4.5460   -0.7103    0.2263 H   0  0  0  0  0  0  0  0  0  0  0  0
    2.5873   -1.4982   -0.7510 H   0  0  0  0  0  0  0  0  0  0  0  0
    1.0752    0.7817   -2.1213 H   0  0  0  0  0  0  0  0  0  0  0  0
    1.0028   -0.7138   -4.1074 H   0  0  0  0  0  0  0  0  0  0  0  0
    1.9017   -1.9752   -3.2144 H   0  0  0  0  0  0  0  0  0  0  0  0
    4.2915   -1.9328   -3.2483 H   0  0  0  0  0  0  0  0  0  0  0  0
    6.4061   -0.8240   -3.8647 H   0  0  0  0  0  0  0  0  0  0  0  0
    6.3975    1.5215   -4.6664 H   0  0  0  0  0  0  0  0  0  0  0  0
    4.2589    2.7587   -4.8642 H   0  0  0  0  0  0  0  0  0  0  0  0
    2.1299    1.6651   -4.2568 H   0  0  0  0  0  0  0  0  0  0  0  0
   -0.8110   -0.7433   -2.3972 H   0  0  0  0  0  0  0  0  0  0  0  0
   -0.5352    0.8472   -0.3539 H   0  0  0  0  0  0  0  0  0  0  0  0
   -0.0401   -0.5549    0.5947 H   0  0  0  0  0  0  0  0  0  0  0  0
   -4.0746   -0.3182   -0.6294 H   0  0  0  0  0  0  0  0  0  0  0  0
   -2.8505   -0.1264   -1.9048 H   0  0  0  0  0  0  0  0  0  0  0  0
   -3.7946    1.3641    1.4587 H   0  0  0  0  0  0  0  0  0  0  0  0
   -3.9160    3.7652    1.8899 H   0  0  0  0  0  0  0  0  0  0  0  0
   -2.5563    4.5493   -2.1394 H   0  0  0  0  0  0  0  0  0  0  0  0
   -2.4587    2.1395   -2.5653 H   0  0  0  0  0  0  0  0  0  0  0  0
   -2.8426    5.7485    2.2809 H   0  0  0  0  0  0  0  0  0  0  0  0
   -3.0016    8.1881    2.5816 H   0  0  0  0  0  0  0  0  0  0  0  0
   -3.5042    9.6510    0.6387 H   0  0  0  0  0  0  0  0  0  0  0  0
   -3.8546    8.6282   -1.5985 H   0  0  0  0  0  0  0  0  0  0  0  0
   -2.4102   -2.4538   -0.8056 H   0  0  0  0  0  0  0  0  0  0  0  0
   -1.8132   -4.5889    1.5763 H   0  0  0  0  0  0  0  0  0  0  0  0
   -4.6823   -2.9879   -0.2905 H   0  0  0  0  0  0  0  0  0  0  0  0
   -5.6326   -4.0841    0.7734 H   0  0  0  0  0  0  0  0  0  0  0  0
   -5.3504   -4.5233   -0.9313 H   0  0  0  0  0  0  0  0  0  0  0  0
   -1.6178   -4.8216   -0.6915 H   0  0  0  0  0  0  0  0  0  0  0  0
   -2.7698   -6.0174   -1.3402 H   0  0  0  0  0  0  0  0  0  0  0  0
   -2.9877   -4.3175   -1.7467 H   0  0  0  0  0  0  0  0  0  0  0  0
   -4.7144   -6.1719    1.6796 H   0  0  0  0  0  0  0  0  0  0  0  0
   -3.1101   -6.7971    1.1459 H   0  0  0  0  0  0  0  0  0  0  0  0
   -4.5121   -6.7810    0.0143 H   0  0  0  0  0  0  0  0  0  0  0  0
   -3.0619   -5.0378    3.4356 H   0  0  0  0  0  0  0  0  0  0  0  0
   -7.1191   -3.2603    4.4194 H   0  0  0  0  0  0  0  0  0  0  0  0
   -6.5276   -3.7167    6.0642 H   0  0  0  0  0  0  0  0  0  0  0  0
   -5.9664   -2.1741    5.3088 H   0  0  0  0  0  0  0  0  0  0  0  0
    0.4920   -2.5104   -0.5656 H   0  0  0  0  0  0  0  0  0  0  0  0
    4.9914    2.3076    0.3698 H   0  0  0  0  0  0  0  0  0  0  0  0
    8.1520    1.3212   -2.6903 H   0  0  0  0  0  0  0  0  0  0  0  0
    8.8795    2.7944   -1.9384 H   0  0  0  0  0  0  0  0  0  0  0  0
    9.0991    1.1858   -1.1467 H   0  0  0  0  0  0  0  0  0  0  0  0
  1  2  1  0
  2  3  1  0
  2  4  1  0
  2  5  1  0
  5  6  1  0
  6  7  2  0
  6  8  1  0
  8  9  1  0
  9 10  1  0
 10 11  1  0
 11 12  2  0
 12 13  1  0
 13 14  2  0
 14 15  1  0
 15 16  2  0
  9 17  1  0
 17 18  1  0
 18 19  1  0
 19 20  1  0
 20 21  1  0
 21 22  2  0
 22 23  1  0
 23 24  2  0
 24 25  1  0
 25 26  2  0
 24 27  1  0
 27 28  2  0
 28 29  1  0
 29 30  2  0
 30 31  1  0
 31 32  2  0
 19 33  1  0
 33 34  1  0
 34 35  2  0
 34 36  1  0
 36 37  1  0
 37 38  1  0
 37 39  1  0
 37 40  1  0
 36 41  1  0
 41 42  1  0
 42 43  2  0
 42 44  1  0
 44 45  1  0
 17 46  1  0
  5 47  1  0
 47 48  1  0
 48 49  2  0
 48 50  1  0
 50 51  1  0
 16 11  1  0
 26 21  1  0
 32 27  1  0
  1 52  1  0
  1 53  1  0
  1 54  1  0
  3 55  1  0
  3 56  1  0
  3 57  1  0
  4 58  1  0
  4 59  1  0
  4 60  1  0
  5 61  1  6
  8 62  1  0
  9 63  1  1
 10 64  1  0
 10 65  1  0
 12 66  1  0
 13 67  1  0
 14 68  1  0
 15 69  1  0
 16 70  1  0
 17 71  1  6
 18 72  1  0
 18 73  1  0
 20 74  1  0
 20 75  1  0
 22 76  1  0
 23 77  1  0
 25 78  1  0
 26 79  1  0
 28 80  1  0
 29 81  1  0
 30 82  1  0
 31 83  1  0
 33 84  1  0
 36 85  1  1
 38 86  1  0
 38 87  1  0
 38 88  1  0
 39 89  1  0
 39 90  1  0
 39 91  1  0
 40 92  1  0
 40 93  1  0
 40 94  1  0
 41 95  1  0
 45 96  1  0
 45 97  1  0
 45 98  1  0
 46 99  1  0
 47100  1  0
 51101  1  0
 51102  1  0
 51103  1  0
M  END
$$$$

     RDKit          3D

 98101  0  0  0  0  0  0  0  0999 V2000
    3.6632    4.0677    0.1280 C   0  0  0  0  0  0  0  0  0  0  0  0
    4.0031    4.2494   -1.3513 C   0  0  0  0  0  0  0  0  0  0  0  0
    5.3073    5.0328   -1.5193 C   0  0  0  0  0  0  0  0  0  0  0  0
    4.0993    2.9149   -2.0365 C   0  0  0  0  0  0  0  0  0  0  0  0
    5.0430    1.9853   -1.7593 N   0  0  0  0  0  0  0  0  0  0  0  0
    4.9216    0.8860   -2.5538 C   0  0  0  0  0  0  0  0  0  0  0  0
    3.8889    0.9430   -3.4901 C   0  0  0  0  0  0  0  0  0  0  0  0
    3.0932    2.4103   -3.2874 S   0  0  0  0  0  0  0  0  0  0  0  0
    5.9006   -0.2514   -2.4789 C   0  0  0  0  0  0  0  0  0  0  0  0
    5.2097   -1.5498   -2.5240 N   0  0  0  0  0  0  0  0  0  0  0  0
    5.4051   -2.4413   -3.6734 C   0  0  0  0  0  0  0  0  0  0  0  0
    4.2866   -1.9504   -1.4868 C   0  0  0  0  0  0  0  0  0  0  0  0
    3.5657   -2.9737   -1.6585 O   0  0  0  0  0  0  0  0  0  0  0  0
    4.1598   -1.1943   -0.2676 N   0  0  0  0  0  0  0  0  0  0  0  0
    2.9985   -1.3648    0.6182 C   0  0  1  0  0  0  0  0  0  0  0  0
    3.1724   -0.6454    1.9874 C   0  0  0  0  0  0  0  0  0  0  0  0
    4.3795   -1.1961    2.7618 C   0  0  0  0  0  0  0  0  0  0  0  0
    3.2681    0.8854    1.8686 C   0  0  0  0  0  0  0  0  0  0  0  0
    1.7444   -0.9018   -0.0795 C   0  0  0  0  0  0  0  0  0  0  0  0
    1.8051    0.0315   -0.9303 O   0  0  0  0  0  0  0  0  0  0  0  0
    0.4860   -1.5125    0.2327 N   0  0  0  0  0  0  0  0  0  0  0  0
   -0.7465   -1.1785   -0.4869 C   0  0  1  0  0  0  0  0  0  0  0  0
   -1.5627   -2.4632   -0.7433 C   0  0  0  0  0  0  0  0  0  0  0  0
   -0.7142   -3.5518   -1.3557 C   0  0  0  0  0  0  0  0  0  0  0  0
   -0.4489   -4.7330   -0.6416 C   0  0  0  0  0  0  0  0  0  0  0  0
    0.3473   -5.7348   -1.2065 C   0  0  0  0  0  0  0  0  0  0  0  0
    0.8980   -5.5603   -2.4776 C   0  0  0  0  0  0  0  0  0  0  0  0
    0.6447   -4.3848   -3.1929 C   0  0  0  0  0  0  0  0  0  0  0  0
   -0.1673   -3.3888   -2.6411 C   0  0  0  0  0  0  0  0  0  0  0  0
   -1.5322   -0.1349    0.3333 C   0  0  0  0  0  0  0  0  0  0  0  0
   -2.7514    0.4706   -0.4175 C   0  0  1  0  0  0  0  0  0  0  0  0
   -4.1042   -0.1302    0.0587 C   0  0  2  0  0  0  0  0  0  0  0  0
   -5.3087    0.4814   -0.6938 C   0  0  0  0  0  0  0  0  0  0  0  0
   -6.6279   -0.0499   -0.1887 C   0  0  0  0  0  0  0  0  0  0  0  0
   -6.9510   -1.4103   -0.3275 C   0  0  0  0  0  0  0  0  0  0  0  0
   -8.1694   -1.8996    0.1565 C   0  0  0  0  0  0  0  0  0  0  0  0
   -9.0787   -1.0332    0.7678 C   0  0  0  0  0  0  0  0  0  0  0  0
   -8.7714    0.3232    0.8999 C   0  0  0  0  0  0  0  0  0  0  0  0
   -7.5511    0.8139    0.4243 C   0  0  0  0  0  0  0  0  0  0  0  0
   -4.2724   -0.0495    1.5186 N   0  0  0  0  0  0  0  0  0  0  0  0
   -4.3614    1.1557    2.2875 C   0  0  0  0  0  0  0  0  0  0  0  0
   -4.5304    2.2718    1.7251 O   0  0  0  0  0  0  0  0  0  0  0  0
   -4.2654    1.0730    3.6809 O   0  0  0  0  0  0  0  0  0  0  0  0
   -4.1835    2.2161    4.5276 C   0  0  0  0  0  0  0  0  0  0  0  0
   -2.8700    2.9100    4.3362 C   0  0  0  0  0  0  0  0  0  0  0  0
   -2.6833    4.2574    4.0483 C   0  0  0  0  0  0  0  0  0  0  0  0
   -1.3822    4.6434    3.9409 N   0  0  0  0  0  0  0  0  0  0  0  0
   -0.5295    3.6142    4.1441 C   0  0  0  0  0  0  0  0  0  0  0  0
   -1.3606    2.1834    4.4641 S   0  0  0  0  0  0  0  0  0  0  0  0
   -2.7597    1.8676   -0.2597 O   0  0  0  0  0  0  0  0  0  0  0  0
    4.4777    3.5288    0.6565 H   0  0  0  0  0  0  0  0  0  0  0  0
    2.7200    3.4930    0.2352 H   0  0  0  0  0  0  0  0  0  0  0  0
    3.5190    5.0566    0.6133 H   0  0  0  0  0  0  0  0  0  0  0  0
    3.1837    4.8384   -1.8214 H   0  0  0  0  0  0  0  0  0  0  0  0
    5.5326    5.1747   -2.5969 H   0  0  0  0  0  0  0  0  0  0  0  0
    5.2175    6.0349   -1.0471 H   0  0  0  0  0  0  0  0  0  0  0  0
    6.1564    4.4930   -1.0480 H   0  0  0  0  0  0  0  0  0  0  0  0
    3.6479    0.1807   -4.2209 H   0  0  0  0  0  0  0  0  0  0  0  0
    6.6094   -0.1429   -3.3270 H   0  0  0  0  0  0  0  0  0  0  0  0
    6.5105   -0.1827   -1.5540 H   0  0  0  0  0  0  0  0  0  0  0  0
    6.1278   -2.0258   -4.4059 H   0  0  0  0  0  0  0  0  0  0  0  0
    4.4384   -2.5983   -4.1977 H   0  0  0  0  0  0  0  0  0  0  0  0
    5.7898   -3.4201   -3.3216 H   0  0  0  0  0  0  0  0  0  0  0  0
    4.9109   -0.5194   -0.0102 H   0  0  0  0  0  0  0  0  0  0  0  0
    2.8875   -2.4515    0.8289 H   0  0  0  0  0  0  0  0  0  0  0  0
    2.2695   -0.8710    2.5995 H   0  0  0  0  0  0  0  0  0  0  0  0
    5.3332   -0.9432    2.2546 H   0  0  0  0  0  0  0  0  0  0  0  0
    4.4028   -0.7642    3.7867 H   0  0  0  0  0  0  0  0  0  0  0  0
    4.3042   -2.3011    2.8555 H   0  0  0  0  0  0  0  0  0  0  0  0
    4.1452    1.1892    1.2616 H   0  0  0  0  0  0  0  0  0  0  0  0
    2.3469    1.2992    1.4102 H   0  0  0  0  0  0  0  0  0  0  0  0
    3.3703    1.3364    2.8772 H   0  0  0  0  0  0  0  0  0  0  0  0
    0.4273   -2.1539    1.0605 H   0  0  0  0  0  0  0  0  0  0  0  0
   -0.4946   -0.7285   -1.4738 H   0  0  0  0  0  0  0  0  0  0  0  0
   -2.3992   -2.2490   -1.4387 H   0  0  0  0  0  0  0  0  0  0  0  0
   -2.0092   -2.8163    0.2138 H   0  0  0  0  0  0  0  0  0  0  0  0
   -0.8470   -4.8758    0.3556 H   0  0  0  0  0  0  0  0  0  0  0  0
    0.5456   -6.6448   -0.6525 H   0  0  0  0  0  0  0  0  0  0  0  0
    1.5215   -6.3348   -2.9086 H   0  0  0  0  0  0  0  0  0  0  0  0
    1.0835   -4.2468   -4.1732 H   0  0  0  0  0  0  0  0  0  0  0  0
   -0.3537   -2.4822   -3.2082 H   0  0  0  0  0  0  0  0  0  0  0  0
   -1.8270   -0.5772    1.3080 H   0  0  0  0  0  0  0  0  0  0  0  0
   -0.8255    0.6875    0.5834 H   0  0  0  0  0  0  0  0  0  0  0  0
   -2.6644    0.2447   -1.5050 H   0  0  0  0  0  0  0  0  0  0  0  0
   -4.0813   -1.2089   -0.2079 H   0  0  0  0  0  0  0  0  0  0  0  0
   -5.2857    1.5890   -0.6153 H   0  0  0  0  0  0  0  0  0  0  0  0
   -5.2205    0.2412   -1.7747 H   0  0  0  0  0  0  0  0  0  0  0  0
   -6.2609   -2.0925   -0.8054 H   0  0  0  0  0  0  0  0  0  0  0  0
   -8.4089   -2.9487    0.0557 H   0  0  0  0  0  0  0  0  0  0  0  0
  -10.0240   -1.4120    1.1341 H   0  0  0  0  0  0  0  0  0  0  0  0
   -9.4754    0.9927    1.3760 H   0  0  0  0  0  0  0  0  0  0  0  0
   -7.3281    1.8660    0.5377 H   0  0  0  0  0  0  0  0  0  0  0  0
   -4.2828   -0.9480    2.0525 H   0  0  0  0  0  0  0  0  0  0  0  0
   -4.2501    1.8788    5.5826 H   0  0  0  0  0  0  0  0  0  0  0  0
   -5.0358    2.9048    4.3303 H   0  0  0  0  0  0  0  0  0  0  0  0
   -3.5010    4.9568    3.9190 H   0  0  0  0  0  0  0  0  0  0  0  0
    0.5470    3.7145    4.1035 H   0  0  0  0  0  0  0  0  0  0  0  0
   -2.0577    2.2351   -0.8586 H   0  0  0  0  0  0  0  0  0  0  0  0
  1  2  1  0
  2  3  1  0
  2  4  1  0
  4  5  2  0
  5  6  1  0
  6  7  2  0
  7  8  1  0
  6  9  1  0
  9 10  1  0
 10 11  1  0
 10 12  1  0
 12 13  2  0
 12 14  1  0
 14 15  1  0
 15 16  1  0
 16 17  1  0
 16 18  1  0
 15 19  1  0
 19 20  2  0
 19 21  1  0
 21 22  1  0
 22 23  1  0
 23 24  1  0
 24 25  2  0
 25 26  1  0
 26 27  2  0
 27 28  1  0
 28 29  2  0
 22 30  1  0
 30 31  1  0
 31 32  1  0
 32 33  1  0
 33 34  1  0
 34 35  2  0
 35 36  1  0
 36 37  2  0
 37 38  1  0
 38 39  2  0
 32 40  1  0
 40 41  1  0
 41 42  2  0
 41 43  1  0
 43 44  1  0
 44 45  1  0
 45 46  2  0
 46 47  1  0
 47 48  2  0
 48 49  1  0
 31 50  1  0
  8  4  1  0
 29 24  1  0
 39 34  1  0
 49 45  1  0
  1 51  1  0
  1 52  1  0
  1 53  1  0
  2 54  1  0
  3 55  1  0
  3 56  1  0
  3 57  1  0
  7 58  1  0
  9 59  1  0
  9 60  1  0
 11 61  1  0
 11 62  1  0
 11 63  1  0
 14 64  1  0
 15 65  1  1
 16 66  1  0
 17 67  1  0
 17 68  1  0
 17 69  1  0
 18 70  1  0
 18 71  1  0
 18 72  1  0
 21 73  1  0
 22 74  1  6
 23 75  1  0
 23 76  1  0
 25 77  1  0
 26 78  1  0
 27 79  1  0
 28 80  1  0
 29 81  1  0
 30 82  1  0
 30 83  1  0
 31 84  1  6
 32 85  1  6
 33 86  1  0
 33 87  1  0
 35 88  1  0
 36 89  1  0
 37 90  1  0
 38 91  1  0
 39 92  1  0
 40 93  1  0
 44 94  1  0
 44 95  1  0
 46 96  1  0
 48 97  1  0
 50 98  1  0
M  END
$$$$
